
     RDKit          3D

 26 29  0  0  0  0  0  0  0  0999 V2000
   -3.2964   -9.9265   -9.1551 O   0  0  0  0  0  0  0  0  0  0  0  0
   -3.2160   -9.0241  -10.2447 C   0  0  0  0  0  0  0  0  0  0  0  0
   -4.0091   -9.6203  -11.3508 C   0  0  0  0  0  0  0  0  0  0  0  0
   -4.7162   -8.6684  -12.2479 C   0  0  0  0  0  0  0  0  0  0  0  0
   -4.0579   -7.3186  -12.1745 C   0  0  0  0  0  0  0  0  0  0  0  0
   -4.2674   -6.7977  -10.7697 C   0  0  0  0  0  0  0  0  0  0  0  0
   -3.6741   -7.7061   -9.7325 C   0  0  0  0  0  0  0  0  0  0  0  0
   -2.2803   -7.4418  -12.4789 S   0  0  0  0  0  0  0  0  0  0  0  0
   -1.5403   -5.8231  -12.7815 C   0  0  0  0  0  0  0  0  0  0  0  0
   -0.9201   -5.8515  -14.1394 C   0  0  0  0  0  0  0  0  0  0  0  0
   -1.2722   -4.9811  -15.1011 N   0  0  0  0  0  0  0  0  0  0  0  0
   -0.7103   -5.0028  -16.3336 C   0  0  0  0  0  0  0  0  0  0  0  0
   -1.0740   -4.1107  -17.3150 C   0  0  0  0  0  0  0  0  0  0  0  0
   -0.4916   -4.1306  -18.5997 C   0  0  0  0  0  0  0  0  0  0  0  0
    0.4668   -5.0731  -18.8687 C   0  0  0  0  0  0  0  0  0  0  0  0
    0.8520   -5.9890  -17.8890 C   0  0  0  0  0  0  0  0  0  0  0  0
    0.2575   -5.9355  -16.6453 C   0  0  0  0  0  0  0  0  0  0  0  0
    0.6113   -6.8243  -15.6506 C   0  0  0  0  0  0  0  0  0  0  0  0
    1.4961   -7.6780  -15.9338 O   0  0  0  0  0  0  0  0  0  0  0  0
    0.0223   -6.7612  -14.4396 N   0  0  0  0  0  0  0  0  0  0  0  0
    1.8075   -6.9153  -18.1843 F   0  0  0  0  0  0  0  0  0  0  0  0
   -0.8883   -3.2331  -19.5154 O   0  0  0  0  0  0  0  0  0  0  0  0
   -0.5587   -2.8994  -20.7863 C   0  0  0  0  0  0  0  0  0  0  0  0
   -1.2674   -1.7210  -21.4057 C   0  0  0  0  0  0  0  0  0  0  0  0
   -1.5736   -1.8253  -22.9098 C   0  0  0  0  0  0  0  0  0  0  0  0
   -2.6400   -1.9311  -21.9081 C   0  0  0  0  0  0  0  0  0  0  0  0
  1  2  1  0
  2  3  1  0
  3  4  1  0
  4  5  1  0
  5  6  1  0
  6  7  1  0
  5  8  1  0
  8  9  1  0
  9 10  1  0
 10 11  2  0
 11 12  1  0
 12 13  2  0
 13 14  1  0
 14 15  2  0
 15 16  1  0
 16 17  2  0
 17 18  1  0
 18 19  2  0
 18 20  1  0
 16 21  1  0
 14 22  1  0
 22 23  1  0
 23 24  1  0
 24 25  1  0
 25 26  1  0
  7  2  1  0
 20 10  1  0
 17 12  1  0
 26 24  1  0
M  END
$$$$
