
     RDKit          3D

 26 29  0  0  0  0  0  0  0  0999 V2000
    0.5901    0.0055  -22.9789 O   0  0  0  0  0  0  0  0  0  0  0  0
    0.4549   -1.2319  -22.3017 C   0  0  0  0  0  0  0  0  0  0  0  0
   -0.8312   -1.1730  -21.5599 C   0  0  0  0  0  0  0  0  0  0  0  0
   -1.5749   -2.4529  -21.4191 C   0  0  0  0  0  0  0  0  0  0  0  0
   -0.6289   -3.6096  -21.5852 C   0  0  0  0  0  0  0  0  0  0  0  0
   -0.1305   -3.5748  -23.0132 C   0  0  0  0  0  0  0  0  0  0  0  0
    0.5786   -2.2919  -23.3363 C   0  0  0  0  0  0  0  0  0  0  0  0
    0.7930   -3.4539  -20.4799 S   0  0  0  0  0  0  0  0  0  0  0  0
    1.4592   -5.0668  -20.0167 C   0  0  0  0  0  0  0  0  0  0  0  0
    1.0088   -5.3637  -18.6244 C   0  0  0  0  0  0  0  0  0  0  0  0
    0.0612   -4.6334  -18.0119 N   0  0  0  0  0  0  0  0  0  0  0  0
   -0.3510   -4.9010  -16.7495 C   0  0  0  0  0  0  0  0  0  0  0  0
   -1.3206   -4.1508  -16.1262 C   0  0  0  0  0  0  0  0  0  0  0  0
   -1.7520   -4.4261  -14.8116 C   0  0  0  0  0  0  0  0  0  0  0  0
   -1.1807   -5.4773  -14.1424 C   0  0  0  0  0  0  0  0  0  0  0  0
   -0.1949   -6.2526  -14.7541 C   0  0  0  0  0  0  0  0  0  0  0  0
    0.1987   -5.9496  -16.0411 C   0  0  0  0  0  0  0  0  0  0  0  0
    1.1708   -6.6928  -16.6795 C   0  0  0  0  0  0  0  0  0  0  0  0
    1.6748   -7.6520  -16.0332 O   0  0  0  0  0  0  0  0  0  0  0  0
    1.5464   -6.3858  -17.9374 N   0  0  0  0  0  0  0  0  0  0  0  0
    0.3560   -7.2918  -14.0649 F   0  0  0  0  0  0  0  0  0  0  0  0
   -2.7028   -3.6578  -14.2572 O   0  0  0  0  0  0  0  0  0  0  0  0
   -3.2323   -3.4680  -13.0248 C   0  0  0  0  0  0  0  0  0  0  0  0
   -2.9563   -2.1526  -12.3407 C   0  0  0  0  0  0  0  0  0  0  0  0
   -3.3743   -0.8861  -13.1079 C   0  0  0  0  0  0  0  0  0  0  0  0
   -4.1155   -1.3376  -11.9252 C   0  0  0  0  0  0  0  0  0  0  0  0
  1  2  1  0
  2  3  1  0
  3  4  1  0
  4  5  1  0
  5  6  1  0
  6  7  1  0
  5  8  1  0
  8  9  1  0
  9 10  1  0
 10 11  2  0
 11 12  1  0
 12 13  2  0
 13 14  1  0
 14 15  2  0
 15 16  1  0
 16 17  2  0
 17 18  1  0
 18 19  2  0
 18 20  1  0
 16 21  1  0
 14 22  1  0
 22 23  1  0
 23 24  1  0
 24 25  1  0
 25 26  1  0
  7  2  1  0
 20 10  1  0
 17 12  1  0
 26 24  1  0
M  END
$$$$
