
     RDKit          3D

 26 29  0  0  0  0  0  0  0  0999 V2000
   -2.3385   -3.1966   -8.0383 O   0  0  0  0  0  0  0  0  0  0  0  0
   -2.0053   -3.5634   -9.3659 C   0  0  0  0  0  0  0  0  0  0  0  0
   -1.4042   -2.3623  -10.0013 C   0  0  0  0  0  0  0  0  0  0  0  0
   -0.3358   -2.6079  -11.0059 C   0  0  0  0  0  0  0  0  0  0  0  0
   -0.4620   -4.0043  -11.5489 C   0  0  0  0  0  0  0  0  0  0  0  0
   -0.1812   -4.9533  -10.4046 C   0  0  0  0  0  0  0  0  0  0  0  0
   -1.1385   -4.7665   -9.2637 C   0  0  0  0  0  0  0  0  0  0  0  0
   -2.1354   -4.3200  -12.1554 S   0  0  0  0  0  0  0  0  0  0  0  0
   -2.2334   -5.8751  -13.0673 C   0  0  0  0  0  0  0  0  0  0  0  0
   -1.4216   -5.7264  -14.3117 C   0  0  0  0  0  0  0  0  0  0  0  0
   -1.7497   -4.8482  -15.2748 N   0  0  0  0  0  0  0  0  0  0  0  0
   -1.0146   -4.7095  -16.4042 C   0  0  0  0  0  0  0  0  0  0  0  0
   -1.3542   -3.8101  -17.3876 C   0  0  0  0  0  0  0  0  0  0  0  0
   -0.5916   -3.6632  -18.5652 C   0  0  0  0  0  0  0  0  0  0  0  0
    0.5221   -4.4463  -18.7251 C   0  0  0  0  0  0  0  0  0  0  0  0
    0.8865   -5.3661  -17.7411 C   0  0  0  0  0  0  0  0  0  0  0  0
    0.1131   -5.4787  -16.6043 C   0  0  0  0  0  0  0  0  0  0  0  0
    0.4407   -6.3771  -15.6091 C   0  0  0  0  0  0  0  0  0  0  0  0
    1.4716   -7.0815  -15.7904 O   0  0  0  0  0  0  0  0  0  0  0  0
   -0.3238   -6.4773  -14.5032 N   0  0  0  0  0  0  0  0  0  0  0  0
    1.9989   -6.1320  -17.9266 F   0  0  0  0  0  0  0  0  0  0  0  0
   -0.9739   -2.7674  -19.4887 O   0  0  0  0  0  0  0  0  0  0  0  0
   -0.4860   -2.2687  -20.6500 C   0  0  0  0  0  0  0  0  0  0  0  0
   -1.3343   -1.2658  -21.3910 C   0  0  0  0  0  0  0  0  0  0  0  0
   -1.3504   -1.3896  -22.9244 C   0  0  0  0  0  0  0  0  0  0  0  0
   -2.5160   -1.7698  -22.1191 C   0  0  0  0  0  0  0  0  0  0  0  0
  1  2  1  0
  2  3  1  0
  3  4  1  0
  4  5  1  0
  5  6  1  0
  6  7  1  0
  5  8  1  0
  8  9  1  0
  9 10  1  0
 10 11  2  0
 11 12  1  0
 12 13  2  0
 13 14  1  0
 14 15  2  0
 15 16  1  0
 16 17  2  0
 17 18  1  0
 18 19  2  0
 18 20  1  0
 16 21  1  0
 14 22  1  0
 22 23  1  0
 23 24  1  0
 24 25  1  0
 25 26  1  0
  7  2  1  0
 20 10  1  0
 17 12  1  0
 26 24  1  0
M  END
$$$$
