
     RDKit          3D

 26 29  0  0  0  0  0  0  0  0999 V2000
   -3.0867   -9.5244   -8.8355 O   0  0  0  0  0  0  0  0  0  0  0  0
   -3.0017   -8.8208  -10.0627 C   0  0  0  0  0  0  0  0  0  0  0  0
   -3.4288   -9.7667  -11.1261 C   0  0  0  0  0  0  0  0  0  0  0  0
   -4.1453   -9.1782  -12.2885 C   0  0  0  0  0  0  0  0  0  0  0  0
   -3.8184   -7.7146  -12.3974 C   0  0  0  0  0  0  0  0  0  0  0  0
   -4.3918   -7.0386  -11.1715 C   0  0  0  0  0  0  0  0  0  0  0  0
   -3.8197   -7.5907   -9.8983 C   0  0  0  0  0  0  0  0  0  0  0  0
   -2.0311   -7.4447  -12.4152 S   0  0  0  0  0  0  0  0  0  0  0  0
   -1.6160   -5.7476  -12.8704 C   0  0  0  0  0  0  0  0  0  0  0  0
   -1.0084   -5.7764  -14.2340 C   0  0  0  0  0  0  0  0  0  0  0  0
   -1.3922   -4.9269  -15.2022 N   0  0  0  0  0  0  0  0  0  0  0  0
   -0.8420   -4.9490  -16.4399 C   0  0  0  0  0  0  0  0  0  0  0  0
   -1.2380   -4.0783  -17.4281 C   0  0  0  0  0  0  0  0  0  0  0  0
   -0.6678   -4.0988  -18.7182 C   0  0  0  0  0  0  0  0  0  0  0  0
    0.3119   -5.0195  -18.9857 C   0  0  0  0  0  0  0  0  0  0  0  0
    0.7301   -5.9134  -17.9992 C   0  0  0  0  0  0  0  0  0  0  0  0
    0.1464   -5.8603  -16.7504 C   0  0  0  0  0  0  0  0  0  0  0  0
    0.5327   -6.7278  -15.7489 C   0  0  0  0  0  0  0  0  0  0  0  0
    1.4364   -7.5618  -16.0310 O   0  0  0  0  0  0  0  0  0  0  0  0
   -0.0460   -6.6653  -14.5328 N   0  0  0  0  0  0  0  0  0  0  0  0
    1.7062   -6.8185  -18.2932 F   0  0  0  0  0  0  0  0  0  0  0  0
   -1.0963   -3.2227  -19.6404 O   0  0  0  0  0  0  0  0  0  0  0  0
   -0.7601   -2.8668  -20.9035 C   0  0  0  0  0  0  0  0  0  0  0  0
   -1.5733   -1.7818  -21.5638 C   0  0  0  0  0  0  0  0  0  0  0  0
   -0.8685   -0.9843  -22.6747 C   0  0  0  0  0  0  0  0  0  0  0  0
   -1.9226   -1.9551  -22.9880 C   0  0  0  0  0  0  0  0  0  0  0  0
  1  2  1  0
  2  3  1  0
  3  4  1  0
  4  5  1  0
  5  6  1  0
  6  7  1  0
  5  8  1  0
  8  9  1  0
  9 10  1  0
 10 11  2  0
 11 12  1  0
 12 13  2  0
 13 14  1  0
 14 15  2  0
 15 16  1  0
 16 17  2  0
 17 18  1  0
 18 19  2  0
 18 20  1  0
 16 21  1  0
 14 22  1  0
 22 23  1  0
 23 24  1  0
 24 25  1  0
 25 26  1  0
  7  2  1  0
 20 10  1  0
 17 12  1  0
 26 24  1  0
M  END
$$$$
