
     RDKit          3D

 26 29  0  0  0  0  0  0  0  0999 V2000
   -3.2392   -9.3241   -8.7264 O   0  0  0  0  0  0  0  0  0  0  0  0
   -3.1413   -8.6500   -9.9691 C   0  0  0  0  0  0  0  0  0  0  0  0
   -3.7228   -9.5569  -10.9924 C   0  0  0  0  0  0  0  0  0  0  0  0
   -4.4298   -8.9084  -12.1285 C   0  0  0  0  0  0  0  0  0  0  0  0
   -3.9514   -7.4911  -12.2804 C   0  0  0  0  0  0  0  0  0  0  0  0
   -4.3842   -6.7406  -11.0402 C   0  0  0  0  0  0  0  0  0  0  0  0
   -3.8110   -7.3356   -9.7871 C   0  0  0  0  0  0  0  0  0  0  0  0
   -2.1487   -7.4190  -12.3919 S   0  0  0  0  0  0  0  0  0  0  0  0
   -1.5699   -5.7568  -12.7938 C   0  0  0  0  0  0  0  0  0  0  0  0
   -0.9574   -5.8035  -14.1548 C   0  0  0  0  0  0  0  0  0  0  0  0
   -1.3341   -4.9635  -15.1340 N   0  0  0  0  0  0  0  0  0  0  0  0
   -0.7794   -5.0019  -16.3693 C   0  0  0  0  0  0  0  0  0  0  0  0
   -1.1683   -4.1409  -17.3687 C   0  0  0  0  0  0  0  0  0  0  0  0
   -0.5934   -4.1783  -18.6564 C   0  0  0  0  0  0  0  0  0  0  0  0
    0.3836   -5.1059  -18.9098 C   0  0  0  0  0  0  0  0  0  0  0  0
    0.7945   -5.9902  -17.9117 C   0  0  0  0  0  0  0  0  0  0  0  0
    0.2064   -5.9206  -16.6657 C   0  0  0  0  0  0  0  0  0  0  0  0
    0.5855   -6.7782  -15.6530 C   0  0  0  0  0  0  0  0  0  0  0  0
    1.4869   -7.6190  -15.9222 O   0  0  0  0  0  0  0  0  0  0  0  0
    0.0026   -6.6996  -14.4399 N   0  0  0  0  0  0  0  0  0  0  0  0
    1.7680   -6.9025  -18.1917 F   0  0  0  0  0  0  0  0  0  0  0  0
   -1.0149   -3.3110  -19.5901 O   0  0  0  0  0  0  0  0  0  0  0  0
   -0.6486   -2.9437  -20.8415 C   0  0  0  0  0  0  0  0  0  0  0  0
   -1.4055   -1.8100  -21.4868 C   0  0  0  0  0  0  0  0  0  0  0  0
   -1.7337   -1.9748  -22.9808 C   0  0  0  0  0  0  0  0  0  0  0  0
   -2.7789   -2.0805  -21.9570 C   0  0  0  0  0  0  0  0  0  0  0  0
  1  2  1  0
  2  3  1  0
  3  4  1  0
  4  5  1  0
  5  6  1  0
  6  7  1  0
  5  8  1  0
  8  9  1  0
  9 10  1  0
 10 11  2  0
 11 12  1  0
 12 13  2  0
 13 14  1  0
 14 15  2  0
 15 16  1  0
 16 17  2  0
 17 18  1  0
 18 19  2  0
 18 20  1  0
 16 21  1  0
 14 22  1  0
 22 23  1  0
 23 24  1  0
 24 25  1  0
 25 26  1  0
  7  2  1  0
 20 10  1  0
 17 12  1  0
 26 24  1  0
M  END
$$$$
