
     RDKit          3D

 26 29  0  0  0  0  0  0  0  0999 V2000
   -3.2970   -9.4518   -8.6656 O   0  0  0  0  0  0  0  0  0  0  0  0
   -3.0982   -8.7962   -9.9061 C   0  0  0  0  0  0  0  0  0  0  0  0
   -3.2426   -9.8310  -10.9625 C   0  0  0  0  0  0  0  0  0  0  0  0
   -3.8273   -9.3831  -12.2542 C   0  0  0  0  0  0  0  0  0  0  0  0
   -3.6534   -7.8969  -12.4009 C   0  0  0  0  0  0  0  0  0  0  0  0
   -4.4860   -7.2430  -11.3202 C   0  0  0  0  0  0  0  0  0  0  0  0
   -4.0645   -7.6674   -9.9435 C   0  0  0  0  0  0  0  0  0  0  0  0
   -1.9275   -7.4150  -12.1627 S   0  0  0  0  0  0  0  0  0  0  0  0
   -1.6377   -5.7025  -12.6555 C   0  0  0  0  0  0  0  0  0  0  0  0
   -0.9898   -5.7181  -14.0007 C   0  0  0  0  0  0  0  0  0  0  0  0
   -1.3613   -4.8753  -14.9795 N   0  0  0  0  0  0  0  0  0  0  0  0
   -0.7745   -4.8856  -16.2004 C   0  0  0  0  0  0  0  0  0  0  0  0
   -1.1582   -4.0218  -17.1995 C   0  0  0  0  0  0  0  0  0  0  0  0
   -0.5500   -4.0299  -18.4723 C   0  0  0  0  0  0  0  0  0  0  0  0
    0.4550   -4.9312  -18.7111 C   0  0  0  0  0  0  0  0  0  0  0  0
    0.8613   -5.8176  -17.7130 C   0  0  0  0  0  0  0  0  0  0  0  0
    0.2402   -5.7771  -16.4819 C   0  0  0  0  0  0  0  0  0  0  0  0
    0.6137   -6.6378  -15.4698 C   0  0  0  0  0  0  0  0  0  0  0  0
    1.5414   -7.4538  -15.7254 O   0  0  0  0  0  0  0  0  0  0  0  0
   -0.0017   -6.5878  -14.2713 N   0  0  0  0  0  0  0  0  0  0  0  0
    1.8631   -6.7032  -17.9784 F   0  0  0  0  0  0  0  0  0  0  0  0
   -0.9681   -3.1616  -19.4064 O   0  0  0  0  0  0  0  0  0  0  0  0
   -0.5588   -2.7447  -20.6286 C   0  0  0  0  0  0  0  0  0  0  0  0
   -1.3906   -1.6965  -21.3242 C   0  0  0  0  0  0  0  0  0  0  0  0
   -1.7427   -1.9741  -22.7960 C   0  0  0  0  0  0  0  0  0  0  0  0
   -2.7574   -2.0690  -21.7410 C   0  0  0  0  0  0  0  0  0  0  0  0
  1  2  1  0
  2  3  1  0
  3  4  1  0
  4  5  1  0
  5  6  1  0
  6  7  1  0
  5  8  1  0
  8  9  1  0
  9 10  1  0
 10 11  2  0
 11 12  1  0
 12 13  2  0
 13 14  1  0
 14 15  2  0
 15 16  1  0
 16 17  2  0
 17 18  1  0
 18 19  2  0
 18 20  1  0
 16 21  1  0
 14 22  1  0
 22 23  1  0
 23 24  1  0
 24 25  1  0
 25 26  1  0
  7  2  1  0
 20 10  1  0
 17 12  1  0
 26 24  1  0
M  END
$$$$
