
     RDKit          3D

 26 29  0  0  0  0  0  0  0  0999 V2000
   -3.4625   -9.1680   -8.7542 O   0  0  0  0  0  0  0  0  0  0  0  0
   -3.2336   -8.5649  -10.0160 C   0  0  0  0  0  0  0  0  0  0  0  0
   -3.5013   -9.6070  -11.0408 C   0  0  0  0  0  0  0  0  0  0  0  0
   -4.0731   -9.1373  -12.3306 C   0  0  0  0  0  0  0  0  0  0  0  0
   -3.7634   -7.6784  -12.5210 C   0  0  0  0  0  0  0  0  0  0  0  0
   -4.5034   -6.9221  -11.4397 C   0  0  0  0  0  0  0  0  0  0  0  0
   -4.0898   -7.3508  -10.0619 C   0  0  0  0  0  0  0  0  0  0  0  0
   -1.9943   -7.3569  -12.3345 S   0  0  0  0  0  0  0  0  0  0  0  0
   -1.5643   -5.6760  -12.8336 C   0  0  0  0  0  0  0  0  0  0  0  0
   -0.9219   -5.7498  -14.1794 C   0  0  0  0  0  0  0  0  0  0  0  0
   -1.2735   -4.9266  -15.1820 N   0  0  0  0  0  0  0  0  0  0  0  0
   -0.6916   -4.9896  -16.4037 C   0  0  0  0  0  0  0  0  0  0  0  0
   -1.0548   -4.1457  -17.4272 C   0  0  0  0  0  0  0  0  0  0  0  0
   -0.4517   -4.2087  -18.7008 C   0  0  0  0  0  0  0  0  0  0  0  0
    0.5271   -5.1443  -18.9153 C   0  0  0  0  0  0  0  0  0  0  0  0
    0.9123   -6.0115  -17.8923 C   0  0  0  0  0  0  0  0  0  0  0  0
    0.2970   -5.9169  -16.6612 C   0  0  0  0  0  0  0  0  0  0  0  0
    0.6501   -6.7571  -15.6249 C   0  0  0  0  0  0  0  0  0  0  0  0
    1.5539   -7.6059  -15.8585 O   0  0  0  0  0  0  0  0  0  0  0  0
    0.0406   -6.6542  -14.4267 N   0  0  0  0  0  0  0  0  0  0  0  0
    1.8882   -6.9321  -18.1339 F   0  0  0  0  0  0  0  0  0  0  0  0
   -0.8489   -3.3573  -19.6593 O   0  0  0  0  0  0  0  0  0  0  0  0
   -0.4357   -2.9926  -20.8968 C   0  0  0  0  0  0  0  0  0  0  0  0
   -1.1963   -1.8906  -21.5910 C   0  0  0  0  0  0  0  0  0  0  0  0
   -1.1481   -1.8953  -23.1287 C   0  0  0  0  0  0  0  0  0  0  0  0
   -2.3675   -2.2717  -22.4056 C   0  0  0  0  0  0  0  0  0  0  0  0
  1  2  1  0
  2  3  1  0
  3  4  1  0
  4  5  1  0
  5  6  1  0
  6  7  1  0
  5  8  1  0
  8  9  1  0
  9 10  1  0
 10 11  2  0
 11 12  1  0
 12 13  2  0
 13 14  1  0
 14 15  2  0
 15 16  1  0
 16 17  2  0
 17 18  1  0
 18 19  2  0
 18 20  1  0
 16 21  1  0
 14 22  1  0
 22 23  1  0
 23 24  1  0
 24 25  1  0
 25 26  1  0
  7  2  1  0
 20 10  1  0
 17 12  1  0
 26 24  1  0
M  END
$$$$
