
     RDKit          3D

 26 29  0  0  0  0  0  0  0  0999 V2000
   -3.6241   -9.6096   -8.9712 O   0  0  0  0  0  0  0  0  0  0  0  0
   -3.3854   -8.8618  -10.1511 C   0  0  0  0  0  0  0  0  0  0  0  0
   -3.6672   -9.7685  -11.2941 C   0  0  0  0  0  0  0  0  0  0  0  0
   -4.2310   -9.1384  -12.5172 C   0  0  0  0  0  0  0  0  0  0  0  0
   -3.9001   -7.6718  -12.5302 C   0  0  0  0  0  0  0  0  0  0  0  0
   -4.6301   -7.0410  -11.3649 C   0  0  0  0  0  0  0  0  0  0  0  0
   -4.2239   -7.6388  -10.0494 C   0  0  0  0  0  0  0  0  0  0  0  0
   -2.1268   -7.4007  -12.3078 S   0  0  0  0  0  0  0  0  0  0  0  0
   -1.6418   -5.7274  -12.7818 C   0  0  0  0  0  0  0  0  0  0  0  0
   -1.0193   -5.7994  -14.1370 C   0  0  0  0  0  0  0  0  0  0  0  0
   -1.3989   -4.9875  -15.1386 N   0  0  0  0  0  0  0  0  0  0  0  0
   -0.8351   -5.0488  -16.3689 C   0  0  0  0  0  0  0  0  0  0  0  0
   -1.2270   -4.2165  -17.3913 C   0  0  0  0  0  0  0  0  0  0  0  0
   -0.6427   -4.2778  -18.6738 C   0  0  0  0  0  0  0  0  0  0  0  0
    0.3467   -5.1997  -18.8983 C   0  0  0  0  0  0  0  0  0  0  0  0
    0.7609   -6.0550  -17.8765 C   0  0  0  0  0  0  0  0  0  0  0  0
    0.1634   -5.9626  -16.6366 C   0  0  0  0  0  0  0  0  0  0  0  0
    0.5453   -6.7912  -15.6011 C   0  0  0  0  0  0  0  0  0  0  0  0
    1.4582   -7.6276  -15.8440 O   0  0  0  0  0  0  0  0  0  0  0  0
   -0.0470   -6.6906  -14.3942 N   0  0  0  0  0  0  0  0  0  0  0  0
    1.7469   -6.9621  -18.1281 F   0  0  0  0  0  0  0  0  0  0  0  0
   -1.0677   -3.4382  -19.6307 O   0  0  0  0  0  0  0  0  0  0  0  0
   -0.8245   -3.2279  -20.9467 C   0  0  0  0  0  0  0  0  0  0  0  0
   -1.6078   -2.1395  -21.6370 C   0  0  0  0  0  0  0  0  0  0  0  0
   -2.5243   -2.5872  -22.7888 C   0  0  0  0  0  0  0  0  0  0  0  0
   -3.0780   -2.1585  -21.4999 C   0  0  0  0  0  0  0  0  0  0  0  0
  1  2  1  0
  2  3  1  0
  3  4  1  0
  4  5  1  0
  5  6  1  0
  6  7  1  0
  5  8  1  0
  8  9  1  0
  9 10  1  0
 10 11  2  0
 11 12  1  0
 12 13  2  0
 13 14  1  0
 14 15  2  0
 15 16  1  0
 16 17  2  0
 17 18  1  0
 18 19  2  0
 18 20  1  0
 16 21  1  0
 14 22  1  0
 22 23  1  0
 23 24  1  0
 24 25  1  0
 25 26  1  0
  7  2  1  0
 20 10  1  0
 17 12  1  0
 26 24  1  0
M  END
$$$$
