
     RDKit          3D

 26 29  0  0  0  0  0  0  0  0999 V2000
   -2.4152   -2.7711   -8.1651 O   0  0  0  0  0  0  0  0  0  0  0  0
   -2.0435   -3.5556   -9.2851 C   0  0  0  0  0  0  0  0  0  0  0  0
   -0.6065   -3.2775   -9.5416 C   0  0  0  0  0  0  0  0  0  0  0  0
    0.2034   -4.4067  -10.0708 C   0  0  0  0  0  0  0  0  0  0  0  0
   -0.6993   -5.4131  -10.7289 C   0  0  0  0  0  0  0  0  0  0  0  0
   -1.5733   -6.0027   -9.6439 C   0  0  0  0  0  0  0  0  0  0  0  0
   -2.4004   -4.9593   -8.9510 C   0  0  0  0  0  0  0  0  0  0  0  0
   -1.7665   -4.6273  -11.9582 S   0  0  0  0  0  0  0  0  0  0  0  0
   -2.3997   -5.8218  -13.1548 C   0  0  0  0  0  0  0  0  0  0  0  0
   -1.5400   -5.7468  -14.3732 C   0  0  0  0  0  0  0  0  0  0  0  0
   -1.7970   -4.8870  -15.3738 N   0  0  0  0  0  0  0  0  0  0  0  0
   -1.0183   -4.8150  -16.4799 C   0  0  0  0  0  0  0  0  0  0  0  0
   -1.2852   -3.9342  -17.5018 C   0  0  0  0  0  0  0  0  0  0  0  0
   -0.4769   -3.8567  -18.6553 C   0  0  0  0  0  0  0  0  0  0  0  0
    0.6073   -4.6902  -18.7513 C   0  0  0  0  0  0  0  0  0  0  0  0
    0.8981   -5.5924  -17.7273 C   0  0  0  0  0  0  0  0  0  0  0  0
    0.0819   -5.6364  -16.6160 C   0  0  0  0  0  0  0  0  0  0  0  0
    0.3365   -6.5154  -15.5829 C   0  0  0  0  0  0  0  0  0  0  0  0
    1.3421   -7.2674  -15.7056 O   0  0  0  0  0  0  0  0  0  0  0  0
   -0.4693   -6.5483  -14.5024 N   0  0  0  0  0  0  0  0  0  0  0  0
    1.9825   -6.4093  -17.8496 F   0  0  0  0  0  0  0  0  0  0  0  0
   -0.7887   -2.9758  -19.6188 O   0  0  0  0  0  0  0  0  0  0  0  0
   -0.2469   -2.5448  -20.7831 C   0  0  0  0  0  0  0  0  0  0  0  0
   -0.9993   -1.4909  -21.5562 C   0  0  0  0  0  0  0  0  0  0  0  0
   -0.9901   -1.6347  -23.0880 C   0  0  0  0  0  0  0  0  0  0  0  0
   -2.1992   -1.9139  -22.3057 C   0  0  0  0  0  0  0  0  0  0  0  0
  1  2  1  0
  2  3  1  0
  3  4  1  0
  4  5  1  0
  5  6  1  0
  6  7  1  0
  5  8  1  0
  8  9  1  0
  9 10  1  0
 10 11  2  0
 11 12  1  0
 12 13  2  0
 13 14  1  0
 14 15  2  0
 15 16  1  0
 16 17  2  0
 17 18  1  0
 18 19  2  0
 18 20  1  0
 16 21  1  0
 14 22  1  0
 22 23  1  0
 23 24  1  0
 24 25  1  0
 25 26  1  0
  7  2  1  0
 20 10  1  0
 17 12  1  0
 26 24  1  0
M  END
$$$$
