
     RDKit          3D

 26 29  0  0  0  0  0  0  0  0999 V2000
   -2.5089   -3.2713   -8.2296 O   0  0  0  0  0  0  0  0  0  0  0  0
   -2.2183   -3.5558   -9.5871 C   0  0  0  0  0  0  0  0  0  0  0  0
   -2.0707   -2.2467  -10.2743 C   0  0  0  0  0  0  0  0  0  0  0  0
   -1.0856   -2.1888  -11.3866 C   0  0  0  0  0  0  0  0  0  0  0  0
   -0.8441   -3.5728  -11.9222 C   0  0  0  0  0  0  0  0  0  0  0  0
   -0.1781   -4.3662  -10.8196 C   0  0  0  0  0  0  0  0  0  0  0  0
   -1.0263   -4.4438   -9.5837 C   0  0  0  0  0  0  0  0  0  0  0  0
   -2.3996   -4.3869  -12.3525 S   0  0  0  0  0  0  0  0  0  0  0  0
   -2.1270   -6.0514  -12.9963 C   0  0  0  0  0  0  0  0  0  0  0  0
   -1.3247   -5.9301  -14.2498 C   0  0  0  0  0  0  0  0  0  0  0  0
   -1.6421   -5.0511  -15.2157 N   0  0  0  0  0  0  0  0  0  0  0  0
   -0.9155   -4.9372  -16.3533 C   0  0  0  0  0  0  0  0  0  0  0  0
   -1.2440   -4.0367  -17.3395 C   0  0  0  0  0  0  0  0  0  0  0  0
   -0.4902   -3.9156  -18.5257 C   0  0  0  0  0  0  0  0  0  0  0  0
    0.6032   -4.7257  -18.6913 C   0  0  0  0  0  0  0  0  0  0  0  0
    0.9561   -5.6471  -17.7046 C   0  0  0  0  0  0  0  0  0  0  0  0
    0.1919   -5.7339  -16.5594 C   0  0  0  0  0  0  0  0  0  0  0  0
    0.5086   -6.6330  -15.5613 C   0  0  0  0  0  0  0  0  0  0  0  0
    1.5209   -7.3626  -15.7480 O   0  0  0  0  0  0  0  0  0  0  0  0
   -0.2468   -6.7078  -14.4471 N   0  0  0  0  0  0  0  0  0  0  0  0
    2.0483   -6.4400  -17.8960 F   0  0  0  0  0  0  0  0  0  0  0  0
   -0.8610   -3.0173  -19.4516 O   0  0  0  0  0  0  0  0  0  0  0  0
   -0.3624   -2.5215  -20.6095 C   0  0  0  0  0  0  0  0  0  0  0  0
   -1.2348   -1.5778  -21.3987 C   0  0  0  0  0  0  0  0  0  0  0  0
   -1.0011   -1.5463  -22.9190 C   0  0  0  0  0  0  0  0  0  0  0  0
   -2.2012   -2.1665  -22.3474 C   0  0  0  0  0  0  0  0  0  0  0  0
  1  2  1  0
  2  3  1  0
  3  4  1  0
  4  5  1  0
  5  6  1  0
  6  7  1  0
  5  8  1  0
  8  9  1  0
  9 10  1  0
 10 11  2  0
 11 12  1  0
 12 13  2  0
 13 14  1  0
 14 15  2  0
 15 16  1  0
 16 17  2  0
 17 18  1  0
 18 19  2  0
 18 20  1  0
 16 21  1  0
 14 22  1  0
 22 23  1  0
 23 24  1  0
 24 25  1  0
 25 26  1  0
  7  2  1  0
 20 10  1  0
 17 12  1  0
 26 24  1  0
M  END
$$$$
