
     RDKit          3D

 26 29  0  0  0  0  0  0  0  0999 V2000
   -3.5299   -9.3676   -8.8275 O   0  0  0  0  0  0  0  0  0  0  0  0
   -3.3819   -8.6790  -10.0572 C   0  0  0  0  0  0  0  0  0  0  0  0
   -3.9822   -9.5449  -11.1049 C   0  0  0  0  0  0  0  0  0  0  0  0
   -4.6412   -8.8499  -12.2423 C   0  0  0  0  0  0  0  0  0  0  0  0
   -4.1018   -7.4517  -12.3631 C   0  0  0  0  0  0  0  0  0  0  0  0
   -4.5251   -6.7029  -11.1185 C   0  0  0  0  0  0  0  0  0  0  0  0
   -3.9995   -7.3407   -9.8655 C   0  0  0  0  0  0  0  0  0  0  0  0
   -2.2959   -7.4533  -12.4423 S   0  0  0  0  0  0  0  0  0  0  0  0
   -1.6406   -5.8069  -12.7879 C   0  0  0  0  0  0  0  0  0  0  0  0
   -1.0247   -5.8370  -14.1478 C   0  0  0  0  0  0  0  0  0  0  0  0
   -1.4039   -4.9897  -15.1198 N   0  0  0  0  0  0  0  0  0  0  0  0
   -0.8461   -5.0131  -16.3540 C   0  0  0  0  0  0  0  0  0  0  0  0
   -1.2375   -4.1446  -17.3460 C   0  0  0  0  0  0  0  0  0  0  0  0
   -0.6594   -4.1663  -18.6326 C   0  0  0  0  0  0  0  0  0  0  0  0
    0.3233   -5.0860  -18.8926 C   0  0  0  0  0  0  0  0  0  0  0  0
    0.7369   -5.9776  -17.9021 C   0  0  0  0  0  0  0  0  0  0  0  0
    0.1455   -5.9233  -16.6569 C   0  0  0  0  0  0  0  0  0  0  0  0
    0.5271   -6.7885  -15.6517 C   0  0  0  0  0  0  0  0  0  0  0  0
    1.4337   -7.6217  -15.9269 O   0  0  0  0  0  0  0  0  0  0  0  0
   -0.0591   -6.7249  -14.4393 N   0  0  0  0  0  0  0  0  0  0  0  0
    1.7161   -6.8817  -18.1887 F   0  0  0  0  0  0  0  0  0  0  0  0
   -1.0836   -3.2925  -19.5589 O   0  0  0  0  0  0  0  0  0  0  0  0
   -0.6584   -2.8356  -20.7612 C   0  0  0  0  0  0  0  0  0  0  0  0
   -1.5312   -1.8355  -21.4772 C   0  0  0  0  0  0  0  0  0  0  0  0
   -1.9028   -2.1751  -22.9311 C   0  0  0  0  0  0  0  0  0  0  0  0
   -2.8948   -2.2589  -21.8538 C   0  0  0  0  0  0  0  0  0  0  0  0
  1  2  1  0
  2  3  1  0
  3  4  1  0
  4  5  1  0
  5  6  1  0
  6  7  1  0
  5  8  1  0
  8  9  1  0
  9 10  1  0
 10 11  2  0
 11 12  1  0
 12 13  2  0
 13 14  1  0
 14 15  2  0
 15 16  1  0
 16 17  2  0
 17 18  1  0
 18 19  2  0
 18 20  1  0
 16 21  1  0
 14 22  1  0
 22 23  1  0
 23 24  1  0
 24 25  1  0
 25 26  1  0
  7  2  1  0
 20 10  1  0
 17 12  1  0
 26 24  1  0
M  END
$$$$
