
     RDKit          3D

 26 29  0  0  0  0  0  0  0  0999 V2000
   -3.4033   -9.7316   -9.2007 O   0  0  0  0  0  0  0  0  0  0  0  0
   -3.3131   -8.8168  -10.2793 C   0  0  0  0  0  0  0  0  0  0  0  0
   -4.0972   -9.3999  -11.3987 C   0  0  0  0  0  0  0  0  0  0  0  0
   -4.7962   -8.4373  -12.2909 C   0  0  0  0  0  0  0  0  0  0  0  0
   -4.1378   -7.0889  -12.1965 C   0  0  0  0  0  0  0  0  0  0  0  0
   -4.3589   -6.5839  -10.7876 C   0  0  0  0  0  0  0  0  0  0  0  0
   -3.7749   -7.5045   -9.7559 C   0  0  0  0  0  0  0  0  0  0  0  0
   -2.3578   -7.2098  -12.4873 S   0  0  0  0  0  0  0  0  0  0  0  0
   -1.6368   -5.6057  -12.8956 C   0  0  0  0  0  0  0  0  0  0  0  0
   -0.9918   -5.7235  -14.2371 C   0  0  0  0  0  0  0  0  0  0  0  0
   -1.3168   -4.9107  -15.2570 N   0  0  0  0  0  0  0  0  0  0  0  0
   -0.7325   -5.0137  -16.4748 C   0  0  0  0  0  0  0  0  0  0  0  0
   -1.0685   -4.1803  -17.5160 C   0  0  0  0  0  0  0  0  0  0  0  0
   -0.4626   -4.2848  -18.7856 C   0  0  0  0  0  0  0  0  0  0  0  0
    0.4907   -5.2510  -18.9778 C   0  0  0  0  0  0  0  0  0  0  0  0
    0.8481   -6.1083  -17.9364 C   0  0  0  0  0  0  0  0  0  0  0  0
    0.2311   -5.9727  -16.7100 C   0  0  0  0  0  0  0  0  0  0  0  0
    0.5571   -6.8018  -15.6560 C   0  0  0  0  0  0  0  0  0  0  0  0
    1.4380   -7.6796  -15.8692 O   0  0  0  0  0  0  0  0  0  0  0  0
   -0.0536   -6.6588  -14.4626 N   0  0  0  0  0  0  0  0  0  0  0  0
    1.7991   -7.0599  -18.1559 F   0  0  0  0  0  0  0  0  0  0  0  0
   -0.8328   -3.4417  -19.7622 O   0  0  0  0  0  0  0  0  0  0  0  0
   -0.4182   -3.1283  -21.0132 C   0  0  0  0  0  0  0  0  0  0  0  0
   -1.1927   -2.0729  -21.7622 C   0  0  0  0  0  0  0  0  0  0  0  0
   -0.8234   -1.8812  -23.2433 C   0  0  0  0  0  0  0  0  0  0  0  0
   -2.0850   -2.5185  -22.8511 C   0  0  0  0  0  0  0  0  0  0  0  0
  1  2  1  0
  2  3  1  0
  3  4  1  0
  4  5  1  0
  5  6  1  0
  6  7  1  0
  5  8  1  0
  8  9  1  0
  9 10  1  0
 10 11  2  0
 11 12  1  0
 12 13  2  0
 13 14  1  0
 14 15  2  0
 15 16  1  0
 16 17  2  0
 17 18  1  0
 18 19  2  0
 18 20  1  0
 16 21  1  0
 14 22  1  0
 22 23  1  0
 23 24  1  0
 24 25  1  0
 25 26  1  0
  7  2  1  0
 20 10  1  0
 17 12  1  0
 26 24  1  0
M  END
$$$$
