
     RDKit          3D

 26 29  0  0  0  0  0  0  0  0999 V2000
   -3.1712   -9.3005   -8.6579 O   0  0  0  0  0  0  0  0  0  0  0  0
   -3.0347   -8.6987   -9.9336 C   0  0  0  0  0  0  0  0  0  0  0  0
   -3.3155   -9.7585  -10.9365 C   0  0  0  0  0  0  0  0  0  0  0  0
   -3.9741   -9.3219  -12.1961 C   0  0  0  0  0  0  0  0  0  0  0  0
   -3.7334   -7.8534  -12.4113 C   0  0  0  0  0  0  0  0  0  0  0  0
   -4.4437   -7.1184  -11.2959 C   0  0  0  0  0  0  0  0  0  0  0  0
   -3.9398   -7.5196   -9.9401 C   0  0  0  0  0  0  0  0  0  0  0  0
   -1.9711   -7.4609  -12.3225 S   0  0  0  0  0  0  0  0  0  0  0  0
   -1.6373   -5.7643  -12.8417 C   0  0  0  0  0  0  0  0  0  0  0  0
   -0.9936   -5.8172  -14.1879 C   0  0  0  0  0  0  0  0  0  0  0  0
   -1.3369   -4.9717  -15.1747 N   0  0  0  0  0  0  0  0  0  0  0  0
   -0.7539   -5.0158  -16.3967 C   0  0  0  0  0  0  0  0  0  0  0  0
   -1.1086   -4.1491  -17.4039 C   0  0  0  0  0  0  0  0  0  0  0  0
   -0.5041   -4.1924  -18.6778 C   0  0  0  0  0  0  0  0  0  0  0  0
    0.4671   -5.1318  -18.9093 C   0  0  0  0  0  0  0  0  0  0  0  0
    0.8435   -6.0220  -17.9029 C   0  0  0  0  0  0  0  0  0  0  0  0
    0.2273   -5.9462  -16.6710 C   0  0  0  0  0  0  0  0  0  0  0  0
    0.5719   -6.8094  -15.6507 C   0  0  0  0  0  0  0  0  0  0  0  0
    1.4689   -7.6610  -15.8998 O   0  0  0  0  0  0  0  0  0  0  0  0
   -0.0383   -6.7248  -14.4516 N   0  0  0  0  0  0  0  0  0  0  0  0
    1.8121   -6.9459  -18.1612 F   0  0  0  0  0  0  0  0  0  0  0  0
   -0.8929   -3.3191  -19.6200 O   0  0  0  0  0  0  0  0  0  0  0  0
   -0.5303   -2.9963  -20.8847 C   0  0  0  0  0  0  0  0  0  0  0  0
   -1.2159   -1.8176  -21.5290 C   0  0  0  0  0  0  0  0  0  0  0  0
   -1.5698   -1.9675  -23.0187 C   0  0  0  0  0  0  0  0  0  0  0  0
   -2.6091   -1.9974  -21.9840 C   0  0  0  0  0  0  0  0  0  0  0  0
  1  2  1  0
  2  3  1  0
  3  4  1  0
  4  5  1  0
  5  6  1  0
  6  7  1  0
  5  8  1  0
  8  9  1  0
  9 10  1  0
 10 11  2  0
 11 12  1  0
 12 13  2  0
 13 14  1  0
 14 15  2  0
 15 16  1  0
 16 17  2  0
 17 18  1  0
 18 19  2  0
 18 20  1  0
 16 21  1  0
 14 22  1  0
 22 23  1  0
 23 24  1  0
 24 25  1  0
 25 26  1  0
  7  2  1  0
 20 10  1  0
 17 12  1  0
 26 24  1  0
M  END
$$$$
