
     RDKit          3D

 26 29  0  0  0  0  0  0  0  0999 V2000
   -3.5751   -9.2235   -8.7092 O   0  0  0  0  0  0  0  0  0  0  0  0
   -3.3080   -8.6270   -9.9665 C   0  0  0  0  0  0  0  0  0  0  0  0
   -3.5188   -9.6819  -10.9916 C   0  0  0  0  0  0  0  0  0  0  0  0
   -4.0483   -9.2327  -12.3064 C   0  0  0  0  0  0  0  0  0  0  0  0
   -3.7557   -7.7704  -12.4978 C   0  0  0  0  0  0  0  0  0  0  0  0
   -4.5492   -7.0178  -11.4524 C   0  0  0  0  0  0  0  0  0  0  0  0
   -4.1818   -7.4280  -10.0561 C   0  0  0  0  0  0  0  0  0  0  0  0
   -2.0008   -7.4175  -12.2466 S   0  0  0  0  0  0  0  0  0  0  0  0
   -1.5866   -5.7228  -12.7115 C   0  0  0  0  0  0  0  0  0  0  0  0
   -0.9487   -5.7627  -14.0609 C   0  0  0  0  0  0  0  0  0  0  0  0
   -1.3310   -4.9411  -15.0535 N   0  0  0  0  0  0  0  0  0  0  0  0
   -0.7533   -4.9733  -16.2784 C   0  0  0  0  0  0  0  0  0  0  0  0
   -1.1480   -4.1312  -17.2915 C   0  0  0  0  0  0  0  0  0  0  0  0
   -0.5492   -4.1622  -18.5684 C   0  0  0  0  0  0  0  0  0  0  0  0
    0.4576   -5.0640  -18.7968 C   0  0  0  0  0  0  0  0  0  0  0  0
    0.8750   -5.9288  -17.7844 C   0  0  0  0  0  0  0  0  0  0  0  0
    0.2629   -5.8662  -16.5497 C   0  0  0  0  0  0  0  0  0  0  0  0
    0.6475   -6.7051  -15.5235 C   0  0  0  0  0  0  0  0  0  0  0  0
    1.5766   -7.5223  -15.7698 O   0  0  0  0  0  0  0  0  0  0  0  0
    0.0408   -6.6336  -14.3216 N   0  0  0  0  0  0  0  0  0  0  0  0
    1.8785   -6.8155  -18.0397 F   0  0  0  0  0  0  0  0  0  0  0  0
   -0.9779   -3.3143  -19.5164 O   0  0  0  0  0  0  0  0  0  0  0  0
   -0.5305   -2.8475  -20.7069 C   0  0  0  0  0  0  0  0  0  0  0  0
   -1.4121   -1.8778  -21.4532 C   0  0  0  0  0  0  0  0  0  0  0  0
   -1.7998   -2.2765  -22.8877 C   0  0  0  0  0  0  0  0  0  0  0  0
   -2.7795   -2.3165  -21.7967 C   0  0  0  0  0  0  0  0  0  0  0  0
  1  2  1  0
  2  3  1  0
  3  4  1  0
  4  5  1  0
  5  6  1  0
  6  7  1  0
  5  8  1  0
  8  9  1  0
  9 10  1  0
 10 11  2  0
 11 12  1  0
 12 13  2  0
 13 14  1  0
 14 15  2  0
 15 16  1  0
 16 17  2  0
 17 18  1  0
 18 19  2  0
 18 20  1  0
 16 21  1  0
 14 22  1  0
 22 23  1  0
 23 24  1  0
 24 25  1  0
 25 26  1  0
  7  2  1  0
 20 10  1  0
 17 12  1  0
 26 24  1  0
M  END
$$$$
