
     RDKit          3D

 26 29  0  0  0  0  0  0  0  0999 V2000
   -5.6747   -8.4739   -9.6304 O   0  0  0  0  0  0  0  0  0  0  0  0
   -4.5490   -8.1775  -10.4385 C   0  0  0  0  0  0  0  0  0  0  0  0
   -3.7216   -7.2067   -9.6763 C   0  0  0  0  0  0  0  0  0  0  0  0
   -2.2493   -7.3005   -9.8620 C   0  0  0  0  0  0  0  0  0  0  0  0
   -1.9455   -7.9872  -11.1646 C   0  0  0  0  0  0  0  0  0  0  0  0
   -2.4394   -9.4119  -11.0418 C   0  0  0  0  0  0  0  0  0  0  0  0
   -3.9133   -9.4804  -10.7664 C   0  0  0  0  0  0  0  0  0  0  0  0
   -2.8161   -7.1970  -12.5376 S   0  0  0  0  0  0  0  0  0  0  0  0
   -2.1005   -5.5908  -12.9469 C   0  0  0  0  0  0  0  0  0  0  0  0
   -1.3227   -5.7467  -14.2119 C   0  0  0  0  0  0  0  0  0  0  0  0
   -1.5845   -5.0082  -15.3039 N   0  0  0  0  0  0  0  0  0  0  0  0
   -0.8799   -5.1458  -16.4527 C   0  0  0  0  0  0  0  0  0  0  0  0
   -1.1514   -4.3884  -17.5681 C   0  0  0  0  0  0  0  0  0  0  0  0
   -0.4202   -4.5292  -18.7663 C   0  0  0  0  0  0  0  0  0  0  0  0
    0.5916   -5.4530  -18.8102 C   0  0  0  0  0  0  0  0  0  0  0  0
    0.8855   -6.2331  -17.6912 C   0  0  0  0  0  0  0  0  0  0  0  0
    0.1461   -6.0643  -16.5389 C   0  0  0  0  0  0  0  0  0  0  0  0
    0.4062   -6.8172  -15.4119 C   0  0  0  0  0  0  0  0  0  0  0  0
    1.3440   -7.6578  -15.4888 O   0  0  0  0  0  0  0  0  0  0  0  0
   -0.3242   -6.6423  -14.2923 N   0  0  0  0  0  0  0  0  0  0  0  0
    1.8971   -7.1441  -17.7633 F   0  0  0  0  0  0  0  0  0  0  0  0
   -0.7325   -3.7605  -19.8213 O   0  0  0  0  0  0  0  0  0  0  0  0
   -0.4398   -3.7228  -21.1434 C   0  0  0  0  0  0  0  0  0  0  0  0
   -1.0039   -2.5813  -21.9517 C   0  0  0  0  0  0  0  0  0  0  0  0
   -2.4219   -2.7818  -22.5141 C   0  0  0  0  0  0  0  0  0  0  0  0
   -2.1689   -1.8597  -21.4017 C   0  0  0  0  0  0  0  0  0  0  0  0
  1  2  1  0
  2  3  1  0
  3  4  1  0
  4  5  1  0
  5  6  1  0
  6  7  1  0
  5  8  1  0
  8  9  1  0
  9 10  1  0
 10 11  2  0
 11 12  1  0
 12 13  2  0
 13 14  1  0
 14 15  2  0
 15 16  1  0
 16 17  2  0
 17 18  1  0
 18 19  2  0
 18 20  1  0
 16 21  1  0
 14 22  1  0
 22 23  1  0
 23 24  1  0
 24 25  1  0
 25 26  1  0
  7  2  1  0
 20 10  1  0
 17 12  1  0
 26 24  1  0
M  END
$$$$
