
     RDKit          3D

 26 29  0  0  0  0  0  0  0  0999 V2000
   -3.3432   -9.4613   -8.9224 O   0  0  0  0  0  0  0  0  0  0  0  0
   -3.2153   -8.6335  -10.0654 C   0  0  0  0  0  0  0  0  0  0  0  0
   -3.9165   -9.3292  -11.1755 C   0  0  0  0  0  0  0  0  0  0  0  0
   -4.5883   -8.4641  -12.1811 C   0  0  0  0  0  0  0  0  0  0  0  0
   -3.9738   -7.0920  -12.1607 C   0  0  0  0  0  0  0  0  0  0  0  0
   -4.2905   -6.4832  -10.8125 C   0  0  0  0  0  0  0  0  0  0  0  0
   -3.7427   -7.2989   -9.6779 C   0  0  0  0  0  0  0  0  0  0  0  0
   -2.1772   -7.1787  -12.3406 S   0  0  0  0  0  0  0  0  0  0  0  0
   -1.4674   -5.5681  -12.7429 C   0  0  0  0  0  0  0  0  0  0  0  0
   -0.8604   -5.6640  -14.1037 C   0  0  0  0  0  0  0  0  0  0  0  0
   -1.2321   -4.8515  -15.1077 N   0  0  0  0  0  0  0  0  0  0  0  0
   -0.6823   -4.9346  -16.3430 C   0  0  0  0  0  0  0  0  0  0  0  0
   -1.0661   -4.1016  -17.3679 C   0  0  0  0  0  0  0  0  0  0  0  0
   -0.4963   -4.1854  -18.6556 C   0  0  0  0  0  0  0  0  0  0  0  0
    0.4703   -5.1305  -18.8828 C   0  0  0  0  0  0  0  0  0  0  0  0
    0.8759   -5.9870  -17.8586 C   0  0  0  0  0  0  0  0  0  0  0  0
    0.2931   -5.8721  -16.6135 C   0  0  0  0  0  0  0  0  0  0  0  0
    0.6672   -6.7011  -15.5754 C   0  0  0  0  0  0  0  0  0  0  0  0
    1.5590   -7.5592  -15.8209 O   0  0  0  0  0  0  0  0  0  0  0  0
    0.0895   -6.5783  -14.3635 N   0  0  0  0  0  0  0  0  0  0  0  0
    1.8392   -6.9175  -18.1128 F   0  0  0  0  0  0  0  0  0  0  0  0
   -0.9125   -3.3439  -19.6148 O   0  0  0  0  0  0  0  0  0  0  0  0
   -0.5669   -3.0425  -20.8895 C   0  0  0  0  0  0  0  0  0  0  0  0
   -1.3159   -1.9249  -21.5710 C   0  0  0  0  0  0  0  0  0  0  0  0
   -1.2814   -1.9219  -23.1091 C   0  0  0  0  0  0  0  0  0  0  0  0
   -2.5002   -2.2828  -22.3771 C   0  0  0  0  0  0  0  0  0  0  0  0
  1  2  1  0
  2  3  1  0
  3  4  1  0
  4  5  1  0
  5  6  1  0
  6  7  1  0
  5  8  1  0
  8  9  1  0
  9 10  1  0
 10 11  2  0
 11 12  1  0
 12 13  2  0
 13 14  1  0
 14 15  2  0
 15 16  1  0
 16 17  2  0
 17 18  1  0
 18 19  2  0
 18 20  1  0
 16 21  1  0
 14 22  1  0
 22 23  1  0
 23 24  1  0
 24 25  1  0
 25 26  1  0
  7  2  1  0
 20 10  1  0
 17 12  1  0
 26 24  1  0
M  END
$$$$
