
     RDKit          3D

 26 29  0  0  0  0  0  0  0  0999 V2000
   -3.5831   -9.5866   -9.0989 O   0  0  0  0  0  0  0  0  0  0  0  0
   -3.3883   -8.7871  -10.2526 C   0  0  0  0  0  0  0  0  0  0  0  0
   -4.0120   -9.5170  -11.3866 C   0  0  0  0  0  0  0  0  0  0  0  0
   -4.6243   -8.6837  -12.4552 C   0  0  0  0  0  0  0  0  0  0  0  0
   -4.0221   -7.3062  -12.4313 C   0  0  0  0  0  0  0  0  0  0  0  0
   -4.4287   -6.6660  -11.1223 C   0  0  0  0  0  0  0  0  0  0  0  0
   -3.9488   -7.4477   -9.9343 C   0  0  0  0  0  0  0  0  0  0  0  0
   -2.2171   -7.3817  -12.4940 S   0  0  0  0  0  0  0  0  0  0  0  0
   -1.4930   -5.7687  -12.8592 C   0  0  0  0  0  0  0  0  0  0  0  0
   -0.8752   -5.8426  -14.2165 C   0  0  0  0  0  0  0  0  0  0  0  0
   -1.2140   -4.9915  -15.2000 N   0  0  0  0  0  0  0  0  0  0  0  0
   -0.6543   -5.0545  -16.4320 C   0  0  0  0  0  0  0  0  0  0  0  0
   -1.0043   -4.1820  -17.4358 C   0  0  0  0  0  0  0  0  0  0  0  0
   -0.4241   -4.2449  -18.7201 C   0  0  0  0  0  0  0  0  0  0  0  0
    0.5180   -5.2099  -18.9656 C   0  0  0  0  0  0  0  0  0  0  0  0
    0.8892   -6.1066  -17.9629 C   0  0  0  0  0  0  0  0  0  0  0  0
    0.2973   -6.0110  -16.7204 C   0  0  0  0  0  0  0  0  0  0  0  0
    0.6376   -6.8797  -15.7035 C   0  0  0  0  0  0  0  0  0  0  0  0
    1.5076   -7.7552  -15.9654 O   0  0  0  0  0  0  0  0  0  0  0  0
    0.0514   -6.7755  -14.4939 N   0  0  0  0  0  0  0  0  0  0  0  0
    1.8286   -7.0562  -18.2351 F   0  0  0  0  0  0  0  0  0  0  0  0
   -0.8069   -3.3647  -19.6583 O   0  0  0  0  0  0  0  0  0  0  0  0
   -0.4410   -3.0376  -20.9210 C   0  0  0  0  0  0  0  0  0  0  0  0
   -1.1852   -1.9121  -21.5948 C   0  0  0  0  0  0  0  0  0  0  0  0
   -1.4533   -2.0795  -23.1005 C   0  0  0  0  0  0  0  0  0  0  0  0
   -2.5361   -2.1978  -22.1180 C   0  0  0  0  0  0  0  0  0  0  0  0
  1  2  1  0
  2  3  1  0
  3  4  1  0
  4  5  1  0
  5  6  1  0
  6  7  1  0
  5  8  1  0
  8  9  1  0
  9 10  1  0
 10 11  2  0
 11 12  1  0
 12 13  2  0
 13 14  1  0
 14 15  2  0
 15 16  1  0
 16 17  2  0
 17 18  1  0
 18 19  2  0
 18 20  1  0
 16 21  1  0
 14 22  1  0
 22 23  1  0
 23 24  1  0
 24 25  1  0
 25 26  1  0
  7  2  1  0
 20 10  1  0
 17 12  1  0
 26 24  1  0
M  END
$$$$
