
     RDKit          3D

 26 29  0  0  0  0  0  0  0  0999 V2000
   -0.5752   -1.7300   -9.4321 O   0  0  0  0  0  0  0  0  0  0  0  0
   -0.9510   -2.9324  -10.0811 C   0  0  0  0  0  0  0  0  0  0  0  0
   -0.2903   -4.0395   -9.3423 C   0  0  0  0  0  0  0  0  0  0  0  0
   -1.0330   -5.3257   -9.2715 C   0  0  0  0  0  0  0  0  0  0  0  0
   -2.0291   -5.3983  -10.3954 C   0  0  0  0  0  0  0  0  0  0  0  0
   -3.0548   -4.3134  -10.1510 C   0  0  0  0  0  0  0  0  0  0  0  0
   -2.4370   -2.9461  -10.1111 C   0  0  0  0  0  0  0  0  0  0  0  0
   -1.2375   -5.0873  -11.9904 S   0  0  0  0  0  0  0  0  0  0  0  0
   -2.2700   -5.6338  -13.3669 C   0  0  0  0  0  0  0  0  0  0  0  0
   -1.4230   -5.6446  -14.5965 C   0  0  0  0  0  0  0  0  0  0  0  0
   -1.6689   -4.8305  -15.6373 N   0  0  0  0  0  0  0  0  0  0  0  0
   -0.9016   -4.8364  -16.7536 C   0  0  0  0  0  0  0  0  0  0  0  0
   -1.1571   -4.0021  -17.8167 C   0  0  0  0  0  0  0  0  0  0  0  0
   -0.3607   -4.0057  -18.9810 C   0  0  0  0  0  0  0  0  0  0  0  0
    0.6998   -4.8721  -19.0453 C   0  0  0  0  0  0  0  0  0  0  0  0
    0.9786   -5.7282  -17.9793 C   0  0  0  0  0  0  0  0  0  0  0  0
    0.1747   -5.6932  -16.8587 C   0  0  0  0  0  0  0  0  0  0  0  0
    0.4181   -6.5247  -15.7844 C   0  0  0  0  0  0  0  0  0  0  0  0
    1.4018   -7.3090  -15.8788 O   0  0  0  0  0  0  0  0  0  0  0  0
   -0.3755   -6.4804  -14.6954 N   0  0  0  0  0  0  0  0  0  0  0  0
    2.0395   -6.5794  -18.0706 F   0  0  0  0  0  0  0  0  0  0  0  0
   -0.6604   -3.1672  -19.9853 O   0  0  0  0  0  0  0  0  0  0  0  0
   -0.0433   -2.6772  -21.0872 C   0  0  0  0  0  0  0  0  0  0  0  0
   -0.7903   -1.6593  -21.9121 C   0  0  0  0  0  0  0  0  0  0  0  0
   -0.7339   -1.8469  -23.4381 C   0  0  0  0  0  0  0  0  0  0  0  0
   -1.9605   -2.1248  -22.6831 C   0  0  0  0  0  0  0  0  0  0  0  0
  1  2  1  0
  2  3  1  0
  3  4  1  0
  4  5  1  0
  5  6  1  0
  6  7  1  0
  5  8  1  0
  8  9  1  0
  9 10  1  0
 10 11  2  0
 11 12  1  0
 12 13  2  0
 13 14  1  0
 14 15  2  0
 15 16  1  0
 16 17  2  0
 17 18  1  0
 18 19  2  0
 18 20  1  0
 16 21  1  0
 14 22  1  0
 22 23  1  0
 23 24  1  0
 24 25  1  0
 25 26  1  0
  7  2  1  0
 20 10  1  0
 17 12  1  0
 26 24  1  0
M  END
$$$$
