
     RDKit          3D

 26 29  0  0  0  0  0  0  0  0999 V2000
   -3.1712   -9.7286   -9.2049 O   0  0  0  0  0  0  0  0  0  0  0  0
   -3.1271   -8.7817  -10.2583 C   0  0  0  0  0  0  0  0  0  0  0  0
   -4.2177   -9.1422  -11.2009 C   0  0  0  0  0  0  0  0  0  0  0  0
   -4.8847   -8.0155  -11.9056 C   0  0  0  0  0  0  0  0  0  0  0  0
   -3.9751   -6.8185  -11.9221 C   0  0  0  0  0  0  0  0  0  0  0  0
   -3.8066   -6.3685  -10.4876 C   0  0  0  0  0  0  0  0  0  0  0  0
   -3.2137   -7.4415   -9.6215 C   0  0  0  0  0  0  0  0  0  0  0  0
   -2.3472   -7.2447  -12.5822 S   0  0  0  0  0  0  0  0  0  0  0  0
   -1.3560   -5.7736  -12.9179 C   0  0  0  0  0  0  0  0  0  0  0  0
   -0.7523   -5.9299  -14.2746 C   0  0  0  0  0  0  0  0  0  0  0  0
   -1.1633   -5.1990  -15.3250 N   0  0  0  0  0  0  0  0  0  0  0  0
   -0.6167   -5.3369  -16.5568 C   0  0  0  0  0  0  0  0  0  0  0  0
   -1.0407   -4.5875  -17.6292 C   0  0  0  0  0  0  0  0  0  0  0  0
   -0.4744   -4.7287  -18.9134 C   0  0  0  0  0  0  0  0  0  0  0  0
    0.5303   -5.6448  -19.0880 C   0  0  0  0  0  0  0  0  0  0  0  0
    0.9771   -6.4169  -18.0149 C   0  0  0  0  0  0  0  0  0  0  0  0
    0.3963   -6.2479  -16.7751 C   0  0  0  0  0  0  0  0  0  0  0  0
    0.8104   -6.9930  -15.6898 C   0  0  0  0  0  0  0  0  0  0  0  0
    1.7367   -7.8266  -15.8875 O   0  0  0  0  0  0  0  0  0  0  0  0
    0.2342   -6.8181  -14.4836 N   0  0  0  0  0  0  0  0  0  0  0  0
    1.9777   -7.3203  -18.2174 F   0  0  0  0  0  0  0  0  0  0  0  0
   -0.9308   -3.9678  -19.9205 O   0  0  0  0  0  0  0  0  0  0  0  0
   -1.9284   -3.0722  -20.1149 C   0  0  0  0  0  0  0  0  0  0  0  0
   -2.0700   -2.4717  -21.4911 C   0  0  0  0  0  0  0  0  0  0  0  0
   -2.8142   -3.3255  -22.5324 C   0  0  0  0  0  0  0  0  0  0  0  0
   -3.4291   -2.1261  -21.9536 C   0  0  0  0  0  0  0  0  0  0  0  0
  1  2  1  0
  2  3  1  0
  3  4  1  0
  4  5  1  0
  5  6  1  0
  6  7  1  0
  5  8  1  0
  8  9  1  0
  9 10  1  0
 10 11  2  0
 11 12  1  0
 12 13  2  0
 13 14  1  0
 14 15  2  0
 15 16  1  0
 16 17  2  0
 17 18  1  0
 18 19  2  0
 18 20  1  0
 16 21  1  0
 14 22  1  0
 22 23  1  0
 23 24  1  0
 24 25  1  0
 25 26  1  0
  7  2  1  0
 20 10  1  0
 17 12  1  0
 26 24  1  0
M  END
$$$$
