
     RDKit          3D

 26 29  0  0  0  0  0  0  0  0999 V2000
   -2.5747   -3.5143   -8.3449 O   0  0  0  0  0  0  0  0  0  0  0  0
   -2.2552   -3.7718   -9.7012 C   0  0  0  0  0  0  0  0  0  0  0  0
   -2.2168   -2.4543  -10.3872 C   0  0  0  0  0  0  0  0  0  0  0  0
   -1.2354   -2.3117  -11.4952 C   0  0  0  0  0  0  0  0  0  0  0  0
   -0.8746   -3.6697  -12.0304 C   0  0  0  0  0  0  0  0  0  0  0  0
   -0.1481   -4.4044  -10.9253 C   0  0  0  0  0  0  0  0  0  0  0  0
   -0.9919   -4.5550   -9.6931 C   0  0  0  0  0  0  0  0  0  0  0  0
   -2.3532   -4.6130  -12.4677 S   0  0  0  0  0  0  0  0  0  0  0  0
   -1.9438   -6.2893  -12.9987 C   0  0  0  0  0  0  0  0  0  0  0  0
   -1.2575   -6.1942  -14.3213 C   0  0  0  0  0  0  0  0  0  0  0  0
   -1.6595   -5.3328  -15.2715 N   0  0  0  0  0  0  0  0  0  0  0  0
   -1.0382   -5.2426  -16.4719 C   0  0  0  0  0  0  0  0  0  0  0  0
   -1.4532   -4.3601  -17.4417 C   0  0  0  0  0  0  0  0  0  0  0  0
   -0.8091   -4.2638  -18.6930 C   0  0  0  0  0  0  0  0  0  0  0  0
    0.2641   -5.0799  -18.9407 C   0  0  0  0  0  0  0  0  0  0  0  0
    0.7033   -5.9834  -17.9722 C   0  0  0  0  0  0  0  0  0  0  0  0
    0.0453   -6.0463  -16.7614 C   0  0  0  0  0  0  0  0  0  0  0  0
    0.4495   -6.9271  -15.7788 C   0  0  0  0  0  0  0  0  0  0  0  0
    1.4401   -7.6629  -16.0418 O   0  0  0  0  0  0  0  0  0  0  0  0
   -0.2025   -6.9785  -14.5999 N   0  0  0  0  0  0  0  0  0  0  0  0
    1.7730   -6.7829  -18.2458 F   0  0  0  0  0  0  0  0  0  0  0  0
   -1.2608   -3.3823  -19.5988 O   0  0  0  0  0  0  0  0  0  0  0  0
   -0.7791   -2.7526  -20.6973 C   0  0  0  0  0  0  0  0  0  0  0  0
   -1.7607   -1.9931  -21.5541 C   0  0  0  0  0  0  0  0  0  0  0  0
   -1.4788   -0.4926  -21.7441 C   0  0  0  0  0  0  0  0  0  0  0  0
   -1.2746   -1.4485  -22.8378 C   0  0  0  0  0  0  0  0  0  0  0  0
  1  2  1  0
  2  3  1  0
  3  4  1  0
  4  5  1  0
  5  6  1  0
  6  7  1  0
  5  8  1  0
  8  9  1  0
  9 10  1  0
 10 11  2  0
 11 12  1  0
 12 13  2  0
 13 14  1  0
 14 15  2  0
 15 16  1  0
 16 17  2  0
 17 18  1  0
 18 19  2  0
 18 20  1  0
 16 21  1  0
 14 22  1  0
 22 23  1  0
 23 24  1  0
 24 25  1  0
 25 26  1  0
  7  2  1  0
 20 10  1  0
 17 12  1  0
 26 24  1  0
M  END
$$$$
