
     RDKit          3D

 26 29  0  0  0  0  0  0  0  0999 V2000
    0.1261   -1.6078  -23.8102 O   0  0  0  0  0  0  0  0  0  0  0  0
    0.3810   -2.4006  -22.6637 C   0  0  0  0  0  0  0  0  0  0  0  0
    1.3381   -1.6368  -21.8220 C   0  0  0  0  0  0  0  0  0  0  0  0
    1.2011   -1.7969  -20.3501 C   0  0  0  0  0  0  0  0  0  0  0  0
    0.4899   -3.0858  -20.0445 C   0  0  0  0  0  0  0  0  0  0  0  0
   -0.9189   -2.9539  -20.5799 C   0  0  0  0  0  0  0  0  0  0  0  0
   -0.9432   -2.7020  -22.0594 C   0  0  0  0  0  0  0  0  0  0  0  0
    1.2864   -4.4826  -20.8703 S   0  0  0  0  0  0  0  0  0  0  0  0
    0.5669   -6.0584  -20.3619 C   0  0  0  0  0  0  0  0  0  0  0  0
    0.4310   -6.0395  -18.8751 C   0  0  0  0  0  0  0  0  0  0  0  0
   -0.3650   -5.1592  -18.2443 N   0  0  0  0  0  0  0  0  0  0  0  0
   -0.4919   -5.1403  -16.8957 C   0  0  0  0  0  0  0  0  0  0  0  0
   -1.3071   -4.2374  -16.2541 C   0  0  0  0  0  0  0  0  0  0  0  0
   -1.4415   -4.2143  -14.8501 C   0  0  0  0  0  0  0  0  0  0  0  0
   -0.7329   -5.1252  -14.1102 C   0  0  0  0  0  0  0  0  0  0  0  0
    0.1008   -6.0509  -14.7388 C   0  0  0  0  0  0  0  0  0  0  0  0
    0.2041   -6.0396  -16.1144 C   0  0  0  0  0  0  0  0  0  0  0  0
    1.0184   -6.9389  -16.7724 C   0  0  0  0  0  0  0  0  0  0  0  0
    1.6558   -7.7620  -16.0596 O   0  0  0  0  0  0  0  0  0  0  0  0
    1.1104   -6.9169  -18.1173 N   0  0  0  0  0  0  0  0  0  0  0  0
    0.7937   -6.9451  -13.9781 F   0  0  0  0  0  0  0  0  0  0  0  0
   -2.2533   -3.3089  -14.2821 O   0  0  0  0  0  0  0  0  0  0  0  0
   -2.8056   -3.0969  -13.0634 C   0  0  0  0  0  0  0  0  0  0  0  0
   -2.7790   -1.6906  -12.5191 C   0  0  0  0  0  0  0  0  0  0  0  0
   -3.8916   -0.7494  -13.0120 C   0  0  0  0  0  0  0  0  0  0  0  0
   -3.8905   -1.2722  -11.6416 C   0  0  0  0  0  0  0  0  0  0  0  0
  1  2  1  0
  2  3  1  0
  3  4  1  0
  4  5  1  0
  5  6  1  0
  6  7  1  0
  5  8  1  0
  8  9  1  0
  9 10  1  0
 10 11  2  0
 11 12  1  0
 12 13  2  0
 13 14  1  0
 14 15  2  0
 15 16  1  0
 16 17  2  0
 17 18  1  0
 18 19  2  0
 18 20  1  0
 16 21  1  0
 14 22  1  0
 22 23  1  0
 23 24  1  0
 24 25  1  0
 25 26  1  0
  7  2  1  0
 20 10  1  0
 17 12  1  0
 26 24  1  0
M  END
$$$$
