
     RDKit          3D

 26 29  0  0  0  0  0  0  0  0999 V2000
   -3.2079   -9.7723   -9.1264 O   0  0  0  0  0  0  0  0  0  0  0  0
   -3.1831   -8.8556  -10.2068 C   0  0  0  0  0  0  0  0  0  0  0  0
   -3.9719   -9.4710  -11.3054 C   0  0  0  0  0  0  0  0  0  0  0  0
   -4.7324   -8.5384  -12.1788 C   0  0  0  0  0  0  0  0  0  0  0  0
   -4.1270   -7.1643  -12.1015 C   0  0  0  0  0  0  0  0  0  0  0  0
   -4.3315   -6.6674  -10.6873 C   0  0  0  0  0  0  0  0  0  0  0  0
   -3.6839   -7.5626   -9.6713 C   0  0  0  0  0  0  0  0  0  0  0  0
   -2.3518   -7.2131  -12.4388 S   0  0  0  0  0  0  0  0  0  0  0  0
   -1.7189   -5.5933  -12.9238 C   0  0  0  0  0  0  0  0  0  0  0  0
   -1.0717   -5.7382  -14.2616 C   0  0  0  0  0  0  0  0  0  0  0  0
   -1.4205   -4.9701  -15.3079 N   0  0  0  0  0  0  0  0  0  0  0  0
   -0.8343   -5.0976  -16.5225 C   0  0  0  0  0  0  0  0  0  0  0  0
   -1.1947   -4.3100  -17.5908 C   0  0  0  0  0  0  0  0  0  0  0  0
   -0.5870   -4.4402  -18.8571 C   0  0  0  0  0  0  0  0  0  0  0  0
    0.3934   -5.3848  -19.0180 C   0  0  0  0  0  0  0  0  0  0  0  0
    0.7757   -6.1958  -17.9488 C   0  0  0  0  0  0  0  0  0  0  0  0
    0.1560   -6.0363  -16.7267 C   0  0  0  0  0  0  0  0  0  0  0  0
    0.5063   -6.8196  -15.6457 C   0  0  0  0  0  0  0  0  0  0  0  0
    1.4117   -7.6786  -15.8306 O   0  0  0  0  0  0  0  0  0  0  0  0
   -0.1074   -6.6535  -14.4569 N   0  0  0  0  0  0  0  0  0  0  0  0
    1.7534   -7.1269  -18.1375 F   0  0  0  0  0  0  0  0  0  0  0  0
   -0.9817   -3.6416  -19.8611 O   0  0  0  0  0  0  0  0  0  0  0  0
   -0.5463   -3.3187  -21.1026 C   0  0  0  0  0  0  0  0  0  0  0  0
   -1.4157   -2.4082  -21.9331 C   0  0  0  0  0  0  0  0  0  0  0  0
   -1.5723   -0.9654  -21.4225 C   0  0  0  0  0  0  0  0  0  0  0  0
   -0.7666   -1.2678  -22.6103 C   0  0  0  0  0  0  0  0  0  0  0  0
  1  2  1  0
  2  3  1  0
  3  4  1  0
  4  5  1  0
  5  6  1  0
  6  7  1  0
  5  8  1  0
  8  9  1  0
  9 10  1  0
 10 11  2  0
 11 12  1  0
 12 13  2  0
 13 14  1  0
 14 15  2  0
 15 16  1  0
 16 17  2  0
 17 18  1  0
 18 19  2  0
 18 20  1  0
 16 21  1  0
 14 22  1  0
 22 23  1  0
 23 24  1  0
 24 25  1  0
 25 26  1  0
  7  2  1  0
 20 10  1  0
 17 12  1  0
 26 24  1  0
M  END
$$$$
