
     RDKit          3D

 26 29  0  0  0  0  0  0  0  0999 V2000
   -3.2792   -9.8270   -9.2780 O   0  0  0  0  0  0  0  0  0  0  0  0
   -3.2412   -8.8304  -10.2847 C   0  0  0  0  0  0  0  0  0  0  0  0
   -4.3464   -9.1370  -11.2293 C   0  0  0  0  0  0  0  0  0  0  0  0
   -5.0137   -7.9726  -11.8697 C   0  0  0  0  0  0  0  0  0  0  0  0
   -4.0952   -6.7827  -11.8399 C   0  0  0  0  0  0  0  0  0  0  0  0
   -3.9049   -6.4041  -10.3876 C   0  0  0  0  0  0  0  0  0  0  0  0
   -3.3094   -7.5222   -9.5824 C   0  0  0  0  0  0  0  0  0  0  0  0
   -2.4791   -7.1878  -12.5412 S   0  0  0  0  0  0  0  0  0  0  0  0
   -1.4752   -5.7104  -12.8041 C   0  0  0  0  0  0  0  0  0  0  0  0
   -0.8536   -5.8160  -14.1576 C   0  0  0  0  0  0  0  0  0  0  0  0
   -1.2441   -5.0393  -15.1826 N   0  0  0  0  0  0  0  0  0  0  0  0
   -0.6813   -5.1312  -16.4114 C   0  0  0  0  0  0  0  0  0  0  0  0
   -1.0843   -4.3349  -17.4578 C   0  0  0  0  0  0  0  0  0  0  0  0
   -0.5010   -4.4280  -18.7388 C   0  0  0  0  0  0  0  0  0  0  0  0
    0.4990   -5.3445  -18.9370 C   0  0  0  0  0  0  0  0  0  0  0  0
    0.9246   -6.1635  -17.8905 C   0  0  0  0  0  0  0  0  0  0  0  0
    0.3276   -6.0407  -16.6530 C   0  0  0  0  0  0  0  0  0  0  0  0
    0.7207   -6.8331  -15.5935 C   0  0  0  0  0  0  0  0  0  0  0  0
    1.6432   -7.6655  -15.8126 O   0  0  0  0  0  0  0  0  0  0  0  0
    0.1288   -6.7030  -14.3893 N   0  0  0  0  0  0  0  0  0  0  0  0
    1.9210   -7.0661  -18.1162 F   0  0  0  0  0  0  0  0  0  0  0  0
   -0.9373   -3.6228  -19.7201 O   0  0  0  0  0  0  0  0  0  0  0  0
   -0.4794   -3.1741  -20.9134 C   0  0  0  0  0  0  0  0  0  0  0  0
   -1.3977   -2.3003  -21.7306 C   0  0  0  0  0  0  0  0  0  0  0  0
   -1.6252   -0.8729  -21.2036 C   0  0  0  0  0  0  0  0  0  0  0  0
   -0.8105   -1.1212  -22.3979 C   0  0  0  0  0  0  0  0  0  0  0  0
  1  2  1  0
  2  3  1  0
  3  4  1  0
  4  5  1  0
  5  6  1  0
  6  7  1  0
  5  8  1  0
  8  9  1  0
  9 10  1  0
 10 11  2  0
 11 12  1  0
 12 13  2  0
 13 14  1  0
 14 15  2  0
 15 16  1  0
 16 17  2  0
 17 18  1  0
 18 19  2  0
 18 20  1  0
 16 21  1  0
 14 22  1  0
 22 23  1  0
 23 24  1  0
 24 25  1  0
 25 26  1  0
  7  2  1  0
 20 10  1  0
 17 12  1  0
 26 24  1  0
M  END
$$$$
