
     RDKit          3D

 26 29  0  0  0  0  0  0  0  0999 V2000
   -3.5021   -9.4690   -8.8842 O   0  0  0  0  0  0  0  0  0  0  0  0
   -3.2893   -8.7768  -10.1023 C   0  0  0  0  0  0  0  0  0  0  0  0
   -3.6692   -9.7100  -11.1943 C   0  0  0  0  0  0  0  0  0  0  0  0
   -4.2646   -9.0987  -12.4121 C   0  0  0  0  0  0  0  0  0  0  0  0
   -3.8683   -7.6508  -12.4978 C   0  0  0  0  0  0  0  0  0  0  0  0
   -4.5091   -6.9442  -11.3236 C   0  0  0  0  0  0  0  0  0  0  0  0
   -4.0650   -7.5124  -10.0073 C   0  0  0  0  0  0  0  0  0  0  0  0
   -2.0755   -7.4563  -12.3725 S   0  0  0  0  0  0  0  0  0  0  0  0
   -1.5593   -5.7658  -12.7407 C   0  0  0  0  0  0  0  0  0  0  0  0
   -0.9115   -5.7693  -14.0860 C   0  0  0  0  0  0  0  0  0  0  0  0
   -1.2601   -4.8957  -15.0461 N   0  0  0  0  0  0  0  0  0  0  0  0
   -0.6734   -4.8949  -16.2671 C   0  0  0  0  0  0  0  0  0  0  0  0
   -1.0335   -3.9995  -17.2469 C   0  0  0  0  0  0  0  0  0  0  0  0
   -0.4252   -3.9960  -18.5197 C   0  0  0  0  0  0  0  0  0  0  0  0
    0.5554   -4.9183  -18.7784 C   0  0  0  0  0  0  0  0  0  0  0  0
    0.9376   -5.8369  -17.8001 C   0  0  0  0  0  0  0  0  0  0  0  0
    0.3173   -5.8067  -16.5682 C   0  0  0  0  0  0  0  0  0  0  0  0
    0.6673   -6.6991  -15.5753 C   0  0  0  0  0  0  0  0  0  0  0  0
    1.5730   -7.5338  -15.8489 O   0  0  0  0  0  0  0  0  0  0  0  0
    0.0530   -6.6589  -14.3759 N   0  0  0  0  0  0  0  0  0  0  0  0
    1.9155   -6.7429  -18.0850 F   0  0  0  0  0  0  0  0  0  0  0  0
   -0.8197   -3.0965  -19.4344 O   0  0  0  0  0  0  0  0  0  0  0  0
   -0.4751   -2.7484  -20.6975 C   0  0  0  0  0  0  0  0  0  0  0  0
   -1.2687   -1.6509  -21.3611 C   0  0  0  0  0  0  0  0  0  0  0  0
   -1.0871   -1.5045  -22.8818 C   0  0  0  0  0  0  0  0  0  0  0  0
   -2.3258   -2.0466  -22.3132 C   0  0  0  0  0  0  0  0  0  0  0  0
  1  2  1  0
  2  3  1  0
  3  4  1  0
  4  5  1  0
  5  6  1  0
  6  7  1  0
  5  8  1  0
  8  9  1  0
  9 10  1  0
 10 11  2  0
 11 12  1  0
 12 13  2  0
 13 14  1  0
 14 15  2  0
 15 16  1  0
 16 17  2  0
 17 18  1  0
 18 19  2  0
 18 20  1  0
 16 21  1  0
 14 22  1  0
 22 23  1  0
 23 24  1  0
 24 25  1  0
 25 26  1  0
  7  2  1  0
 20 10  1  0
 17 12  1  0
 26 24  1  0
M  END
$$$$
