
     RDKit          3D

 26 29  0  0  0  0  0  0  0  0999 V2000
   -3.5025   -9.3478   -8.7925 O   0  0  0  0  0  0  0  0  0  0  0  0
   -3.2395   -8.7319  -10.0414 C   0  0  0  0  0  0  0  0  0  0  0  0
   -3.3809   -9.7892  -11.0757 C   0  0  0  0  0  0  0  0  0  0  0  0
   -3.9056   -9.3572  -12.3983 C   0  0  0  0  0  0  0  0  0  0  0  0
   -3.6781   -7.8817  -12.5764 C   0  0  0  0  0  0  0  0  0  0  0  0
   -4.5258   -7.1733  -11.5428 C   0  0  0  0  0  0  0  0  0  0  0  0
   -4.1665   -7.5743  -10.1417 C   0  0  0  0  0  0  0  0  0  0  0  0
   -1.9467   -7.4488  -12.2893 S   0  0  0  0  0  0  0  0  0  0  0  0
   -1.6026   -5.7350  -12.7411 C   0  0  0  0  0  0  0  0  0  0  0  0
   -0.9662   -5.7381  -14.0918 C   0  0  0  0  0  0  0  0  0  0  0  0
   -1.3283   -4.8693  -15.0512 N   0  0  0  0  0  0  0  0  0  0  0  0
   -0.7519   -4.8681  -16.2771 C   0  0  0  0  0  0  0  0  0  0  0  0
   -1.1258   -3.9776  -17.2562 C   0  0  0  0  0  0  0  0  0  0  0  0
   -0.5284   -3.9738  -18.5341 C   0  0  0  0  0  0  0  0  0  0  0  0
    0.4557   -4.8907  -18.7987 C   0  0  0  0  0  0  0  0  0  0  0  0
    0.8517   -5.8044  -17.8212 C   0  0  0  0  0  0  0  0  0  0  0  0
    0.2418   -5.7747  -16.5842 C   0  0  0  0  0  0  0  0  0  0  0  0
    0.6057   -6.6622  -15.5920 C   0  0  0  0  0  0  0  0  0  0  0  0
    1.5141   -7.4921  -15.8710 O   0  0  0  0  0  0  0  0  0  0  0  0
    0.0013   -6.6225  -14.3875 N   0  0  0  0  0  0  0  0  0  0  0  0
    1.8328   -6.7051  -18.1121 F   0  0  0  0  0  0  0  0  0  0  0  0
   -0.9362   -3.0792  -19.4478 O   0  0  0  0  0  0  0  0  0  0  0  0
   -0.5054   -2.6176  -20.6464 C   0  0  0  0  0  0  0  0  0  0  0  0
   -1.3594   -1.5913  -21.3479 C   0  0  0  0  0  0  0  0  0  0  0  0
   -0.8777   -1.1412  -22.7380 C   0  0  0  0  0  0  0  0  0  0  0  0
   -2.0538   -2.0042  -22.5840 C   0  0  0  0  0  0  0  0  0  0  0  0
  1  2  1  0
  2  3  1  0
  3  4  1  0
  4  5  1  0
  5  6  1  0
  6  7  1  0
  5  8  1  0
  8  9  1  0
  9 10  1  0
 10 11  2  0
 11 12  1  0
 12 13  2  0
 13 14  1  0
 14 15  2  0
 15 16  1  0
 16 17  2  0
 17 18  1  0
 18 19  2  0
 18 20  1  0
 16 21  1  0
 14 22  1  0
 22 23  1  0
 23 24  1  0
 24 25  1  0
 25 26  1  0
  7  2  1  0
 20 10  1  0
 17 12  1  0
 26 24  1  0
M  END
$$$$
