
     RDKit          3D

 26 29  0  0  0  0  0  0  0  0999 V2000
   -3.3859   -9.1797   -8.5823 O   0  0  0  0  0  0  0  0  0  0  0  0
   -3.1522   -8.6187   -9.8624 C   0  0  0  0  0  0  0  0  0  0  0  0
   -3.1247   -9.7505  -10.8247 C   0  0  0  0  0  0  0  0  0  0  0  0
   -3.6471   -9.4740  -12.1891 C   0  0  0  0  0  0  0  0  0  0  0  0
   -3.5941   -7.9964  -12.4623 C   0  0  0  0  0  0  0  0  0  0  0  0
   -4.5603   -7.3326  -11.5060 C   0  0  0  0  0  0  0  0  0  0  0  0
   -4.2086   -7.5939  -10.0704 C   0  0  0  0  0  0  0  0  0  0  0  0
   -1.9403   -7.3346  -12.1544 S   0  0  0  0  0  0  0  0  0  0  0  0
   -1.7767   -5.6394  -12.7535 C   0  0  0  0  0  0  0  0  0  0  0  0
   -1.0982   -5.6886  -14.0827 C   0  0  0  0  0  0  0  0  0  0  0  0
   -1.4957   -4.9233  -15.1135 N   0  0  0  0  0  0  0  0  0  0  0  0
   -0.8815   -4.9641  -16.3202 C   0  0  0  0  0  0  0  0  0  0  0  0
   -1.2919   -4.1796  -17.3726 C   0  0  0  0  0  0  0  0  0  0  0  0
   -0.6551   -4.2198  -18.6307 C   0  0  0  0  0  0  0  0  0  0  0  0
    0.4060   -5.0710  -18.7998 C   0  0  0  0  0  0  0  0  0  0  0  0
    0.8403   -5.8769  -17.7467 C   0  0  0  0  0  0  0  0  0  0  0  0
    0.1898   -5.8073  -16.5322 C   0  0  0  0  0  0  0  0  0  0  0  0
    0.5896   -6.5887  -15.4671 C   0  0  0  0  0  0  0  0  0  0  0  0
    1.5690   -7.3606  -15.6591 O   0  0  0  0  0  0  0  0  0  0  0  0
   -0.0551   -6.5111  -14.2856 N   0  0  0  0  0  0  0  0  0  0  0  0
    1.8980   -6.7142  -17.9432 F   0  0  0  0  0  0  0  0  0  0  0  0
   -1.1017   -3.4292  -19.6192 O   0  0  0  0  0  0  0  0  0  0  0  0
   -0.5892   -2.8345  -20.7232 C   0  0  0  0  0  0  0  0  0  0  0  0
   -1.5430   -2.0866  -21.6207 C   0  0  0  0  0  0  0  0  0  0  0  0
   -1.9639   -0.6844  -21.1476 C   0  0  0  0  0  0  0  0  0  0  0  0
   -1.0485   -0.8614  -22.2800 C   0  0  0  0  0  0  0  0  0  0  0  0
  1  2  1  0
  2  3  1  0
  3  4  1  0
  4  5  1  0
  5  6  1  0
  6  7  1  0
  5  8  1  0
  8  9  1  0
  9 10  1  0
 10 11  2  0
 11 12  1  0
 12 13  2  0
 13 14  1  0
 14 15  2  0
 15 16  1  0
 16 17  2  0
 17 18  1  0
 18 19  2  0
 18 20  1  0
 16 21  1  0
 14 22  1  0
 22 23  1  0
 23 24  1  0
 24 25  1  0
 25 26  1  0
  7  2  1  0
 20 10  1  0
 17 12  1  0
 26 24  1  0
M  END
$$$$
