
     RDKit          3D

 26 29  0  0  0  0  0  0  0  0999 V2000
   -3.1556   -9.5301   -9.0072 O   0  0  0  0  0  0  0  0  0  0  0  0
   -3.1117   -8.7240  -10.1718 C   0  0  0  0  0  0  0  0  0  0  0  0
   -3.8028   -9.4865  -11.2437 C   0  0  0  0  0  0  0  0  0  0  0  0
   -4.5549   -8.6871  -12.2468 C   0  0  0  0  0  0  0  0  0  0  0  0
   -4.0232   -7.2810  -12.2762 C   0  0  0  0  0  0  0  0  0  0  0  0
   -4.3354   -6.6596  -10.9327 C   0  0  0  0  0  0  0  0  0  0  0  0
   -3.7061   -7.4140   -9.7978 C   0  0  0  0  0  0  0  0  0  0  0  0
   -2.2309   -7.2656  -12.5102 S   0  0  0  0  0  0  0  0  0  0  0  0
   -1.6262   -5.6180  -12.9337 C   0  0  0  0  0  0  0  0  0  0  0  0
   -0.9866   -5.6988  -14.2804 C   0  0  0  0  0  0  0  0  0  0  0  0
   -1.3703   -4.9102  -15.2990 N   0  0  0  0  0  0  0  0  0  0  0  0
   -0.7911   -4.9796  -16.5216 C   0  0  0  0  0  0  0  0  0  0  0  0
   -1.1871   -4.1712  -17.5614 C   0  0  0  0  0  0  0  0  0  0  0  0
   -0.5868   -4.2410  -18.8361 C   0  0  0  0  0  0  0  0  0  0  0  0
    0.4230   -5.1466  -19.0347 C   0  0  0  0  0  0  0  0  0  0  0  0
    0.8418   -5.9776  -17.9949 C   0  0  0  0  0  0  0  0  0  0  0  0
    0.2281   -5.8776  -16.7635 C   0  0  0  0  0  0  0  0  0  0  0  0
    0.6140   -6.6824  -15.7107 C   0  0  0  0  0  0  0  0  0  0  0  0
    1.5458   -7.5043  -15.9300 O   0  0  0  0  0  0  0  0  0  0  0  0
    0.0058   -6.5746  -14.5124 N   0  0  0  0  0  0  0  0  0  0  0  0
    1.8482   -6.8689  -18.2209 F   0  0  0  0  0  0  0  0  0  0  0  0
   -1.0169   -3.4249  -19.8110 O   0  0  0  0  0  0  0  0  0  0  0  0
   -0.5389   -2.9383  -20.9814 C   0  0  0  0  0  0  0  0  0  0  0  0
   -1.4595   -2.0756  -21.8077 C   0  0  0  0  0  0  0  0  0  0  0  0
   -1.4494   -0.5705  -21.4888 C   0  0  0  0  0  0  0  0  0  0  0  0
   -0.8439   -1.0907  -22.7195 C   0  0  0  0  0  0  0  0  0  0  0  0
  1  2  1  0
  2  3  1  0
  3  4  1  0
  4  5  1  0
  5  6  1  0
  6  7  1  0
  5  8  1  0
  8  9  1  0
  9 10  1  0
 10 11  2  0
 11 12  1  0
 12 13  2  0
 13 14  1  0
 14 15  2  0
 15 16  1  0
 16 17  2  0
 17 18  1  0
 18 19  2  0
 18 20  1  0
 16 21  1  0
 14 22  1  0
 22 23  1  0
 23 24  1  0
 24 25  1  0
 25 26  1  0
  7  2  1  0
 20 10  1  0
 17 12  1  0
 26 24  1  0
M  END
$$$$
