
     RDKit          3D

 26 29  0  0  0  0  0  0  0  0999 V2000
   -5.7229   -8.8391   -9.7961 O   0  0  0  0  0  0  0  0  0  0  0  0
   -4.5696   -8.5247  -10.5572 C   0  0  0  0  0  0  0  0  0  0  0  0
   -3.6865   -7.7159   -9.6775 C   0  0  0  0  0  0  0  0  0  0  0  0
   -2.2220   -7.8890   -9.8683 C   0  0  0  0  0  0  0  0  0  0  0  0
   -1.9506   -8.4290  -11.2450 C   0  0  0  0  0  0  0  0  0  0  0  0
   -2.5432   -9.8199  -11.3017 C   0  0  0  0  0  0  0  0  0  0  0  0
   -4.0215   -9.8185  -11.0420 C   0  0  0  0  0  0  0  0  0  0  0  0
   -2.7478   -7.4162  -12.5124 S   0  0  0  0  0  0  0  0  0  0  0  0
   -1.9212   -5.8237  -12.7129 C   0  0  0  0  0  0  0  0  0  0  0  0
   -1.2193   -5.8366  -14.0307 C   0  0  0  0  0  0  0  0  0  0  0  0
   -1.5445   -4.9854  -15.0187 N   0  0  0  0  0  0  0  0  0  0  0  0
   -0.9087   -4.9932  -16.2148 C   0  0  0  0  0  0  0  0  0  0  0  0
   -1.2451   -4.1208  -17.2234 C   0  0  0  0  0  0  0  0  0  0  0  0
   -0.5857   -4.1262  -18.4705 C   0  0  0  0  0  0  0  0  0  0  0  0
    0.4214   -5.0337  -18.6738 C   0  0  0  0  0  0  0  0  0  0  0  0
    0.7803   -5.9289  -17.6654 C   0  0  0  0  0  0  0  0  0  0  0  0
    0.1100   -5.8907  -16.4603 C   0  0  0  0  0  0  0  0  0  0  0  0
    0.4357   -6.7601  -15.4391 C   0  0  0  0  0  0  0  0  0  0  0  0
    1.3669   -7.5816  -15.6617 O   0  0  0  0  0  0  0  0  0  0  0  0
   -0.2275   -6.7122  -14.2663 N   0  0  0  0  0  0  0  0  0  0  0  0
    1.7855   -6.8206  -17.8953 F   0  0  0  0  0  0  0  0  0  0  0  0
   -0.9591   -3.2493  -19.4155 O   0  0  0  0  0  0  0  0  0  0  0  0
   -0.6135   -2.9591  -20.6928 C   0  0  0  0  0  0  0  0  0  0  0  0
   -1.3236   -1.8110  -21.3652 C   0  0  0  0  0  0  0  0  0  0  0  0
   -1.8365   -2.0707  -22.7923 C   0  0  0  0  0  0  0  0  0  0  0  0
   -2.7620   -1.9700  -21.6588 C   0  0  0  0  0  0  0  0  0  0  0  0
  1  2  1  0
  2  3  1  0
  3  4  1  0
  4  5  1  0
  5  6  1  0
  6  7  1  0
  5  8  1  0
  8  9  1  0
  9 10  1  0
 10 11  2  0
 11 12  1  0
 12 13  2  0
 13 14  1  0
 14 15  2  0
 15 16  1  0
 16 17  2  0
 17 18  1  0
 18 19  2  0
 18 20  1  0
 16 21  1  0
 14 22  1  0
 22 23  1  0
 23 24  1  0
 24 25  1  0
 25 26  1  0
  7  2  1  0
 20 10  1  0
 17 12  1  0
 26 24  1  0
M  END
$$$$
