
     RDKit          3D

 26 29  0  0  0  0  0  0  0  0999 V2000
   -2.6741   -3.0013   -8.0899 O   0  0  0  0  0  0  0  0  0  0  0  0
   -2.2374   -3.5747   -9.3100 C   0  0  0  0  0  0  0  0  0  0  0  0
   -1.0927   -2.7527   -9.7811 C   0  0  0  0  0  0  0  0  0  0  0  0
   -0.0193   -3.4709  -10.5180 C   0  0  0  0  0  0  0  0  0  0  0  0
   -0.5649   -4.7508  -11.0880 C   0  0  0  0  0  0  0  0  0  0  0  0
   -0.9298   -5.6383   -9.9184 C   0  0  0  0  0  0  0  0  0  0  0  0
   -1.9559   -5.0059   -9.0238 C   0  0  0  0  0  0  0  0  0  0  0  0
   -2.0569   -4.4477  -12.0625 S   0  0  0  0  0  0  0  0  0  0  0  0
   -2.4592   -5.8522  -13.1231 C   0  0  0  0  0  0  0  0  0  0  0  0
   -1.6115   -5.7564  -14.3484 C   0  0  0  0  0  0  0  0  0  0  0  0
   -1.8918   -4.8961  -15.3423 N   0  0  0  0  0  0  0  0  0  0  0  0
   -1.1239   -4.8052  -16.4546 C   0  0  0  0  0  0  0  0  0  0  0  0
   -1.4147   -3.9239  -17.4696 C   0  0  0  0  0  0  0  0  0  0  0  0
   -0.6178   -3.8269  -18.6296 C   0  0  0  0  0  0  0  0  0  0  0  0
    0.4796   -4.6411  -18.7392 C   0  0  0  0  0  0  0  0  0  0  0  0
    0.7946   -5.5434  -17.7224 C   0  0  0  0  0  0  0  0  0  0  0  0
   -0.0111   -5.6070  -16.6044 C   0  0  0  0  0  0  0  0  0  0  0  0
    0.2674   -6.4866  -15.5780 C   0  0  0  0  0  0  0  0  0  0  0  0
    1.2846   -7.2207  -15.7133 O   0  0  0  0  0  0  0  0  0  0  0  0
   -0.5283   -6.5388  -14.4910 N   0  0  0  0  0  0  0  0  0  0  0  0
    1.8917   -6.3410  -17.8582 F   0  0  0  0  0  0  0  0  0  0  0  0
   -0.9529   -2.9466  -19.5858 O   0  0  0  0  0  0  0  0  0  0  0  0
   -0.4949   -2.5871  -20.8089 C   0  0  0  0  0  0  0  0  0  0  0  0
   -1.2554   -1.5186  -21.5537 C   0  0  0  0  0  0  0  0  0  0  0  0
   -1.3205   -1.6711  -23.0832 C   0  0  0  0  0  0  0  0  0  0  0  0
   -2.4988   -1.9152  -22.2444 C   0  0  0  0  0  0  0  0  0  0  0  0
  1  2  1  0
  2  3  1  0
  3  4  1  0
  4  5  1  0
  5  6  1  0
  6  7  1  0
  5  8  1  0
  8  9  1  0
  9 10  1  0
 10 11  2  0
 11 12  1  0
 12 13  2  0
 13 14  1  0
 14 15  2  0
 15 16  1  0
 16 17  2  0
 17 18  1  0
 18 19  2  0
 18 20  1  0
 16 21  1  0
 14 22  1  0
 22 23  1  0
 23 24  1  0
 24 25  1  0
 25 26  1  0
  7  2  1  0
 20 10  1  0
 17 12  1  0
 26 24  1  0
M  END
$$$$
