
     RDKit          3D

 26 29  0  0  0  0  0  0  0  0999 V2000
   -3.1689   -9.7749   -9.1126 O   0  0  0  0  0  0  0  0  0  0  0  0
   -3.1482   -8.8650  -10.1988 C   0  0  0  0  0  0  0  0  0  0  0  0
   -4.1559   -9.3481  -11.1781 C   0  0  0  0  0  0  0  0  0  0  0  0
   -4.8757   -8.3063  -11.9577 C   0  0  0  0  0  0  0  0  0  0  0  0
   -4.0672   -7.0388  -11.9770 C   0  0  0  0  0  0  0  0  0  0  0  0
   -4.0099   -6.5264  -10.5547 C   0  0  0  0  0  0  0  0  0  0  0  0
   -3.3767   -7.5153   -9.6197 C   0  0  0  0  0  0  0  0  0  0  0  0
   -2.3782   -7.3504  -12.5405 S   0  0  0  0  0  0  0  0  0  0  0  0
   -1.4555   -5.8153  -12.7676 C   0  0  0  0  0  0  0  0  0  0  0  0
   -0.8679   -5.8347  -14.1401 C   0  0  0  0  0  0  0  0  0  0  0  0
   -1.2772   -4.9894  -15.1015 N   0  0  0  0  0  0  0  0  0  0  0  0
   -0.7453   -5.0031  -16.3473 C   0  0  0  0  0  0  0  0  0  0  0  0
   -1.1674   -4.1367  -17.3284 C   0  0  0  0  0  0  0  0  0  0  0  0
   -0.6163   -4.1484  -18.6269 C   0  0  0  0  0  0  0  0  0  0  0  0
    0.3714   -5.0558  -18.9100 C   0  0  0  0  0  0  0  0  0  0  0  0
    0.8160   -5.9450  -17.9309 C   0  0  0  0  0  0  0  0  0  0  0  0
    0.2504   -5.9008  -16.6734 C   0  0  0  0  0  0  0  0  0  0  0  0
    0.6630   -6.7641  -15.6788 C   0  0  0  0  0  0  0  0  0  0  0  0
    1.5733   -7.5859  -15.9753 O   0  0  0  0  0  0  0  0  0  0  0  0
    0.1017   -6.7105  -14.4542 N   0  0  0  0  0  0  0  0  0  0  0  0
    1.7995   -6.8368  -18.2404 F   0  0  0  0  0  0  0  0  0  0  0  0
   -1.0700   -3.2772  -19.5416 O   0  0  0  0  0  0  0  0  0  0  0  0
   -0.6991   -2.8450  -20.7707 C   0  0  0  0  0  0  0  0  0  0  0  0
   -1.5239   -1.7538  -21.4062 C   0  0  0  0  0  0  0  0  0  0  0  0
   -1.9532   -1.9879  -22.8649 C   0  0  0  0  0  0  0  0  0  0  0  0
   -2.9209   -2.0694  -21.7656 C   0  0  0  0  0  0  0  0  0  0  0  0
  1  2  1  0
  2  3  1  0
  3  4  1  0
  4  5  1  0
  5  6  1  0
  6  7  1  0
  5  8  1  0
  8  9  1  0
  9 10  1  0
 10 11  2  0
 11 12  1  0
 12 13  2  0
 13 14  1  0
 14 15  2  0
 15 16  1  0
 16 17  2  0
 17 18  1  0
 18 19  2  0
 18 20  1  0
 16 21  1  0
 14 22  1  0
 22 23  1  0
 23 24  1  0
 24 25  1  0
 25 26  1  0
  7  2  1  0
 20 10  1  0
 17 12  1  0
 26 24  1  0
M  END
$$$$
