
     RDKit          3D

 26 29  0  0  0  0  0  0  0  0999 V2000
   -3.4571   -9.3487   -8.7881 O   0  0  0  0  0  0  0  0  0  0  0  0
   -3.2877   -8.6422  -10.0048 C   0  0  0  0  0  0  0  0  0  0  0  0
   -3.8588   -9.4978  -11.0770 C   0  0  0  0  0  0  0  0  0  0  0  0
   -4.4982   -8.7919  -12.2189 C   0  0  0  0  0  0  0  0  0  0  0  0
   -3.9667   -7.3884  -12.3088 C   0  0  0  0  0  0  0  0  0  0  0  0
   -4.4224   -6.6599  -11.0636 C   0  0  0  0  0  0  0  0  0  0  0  0
   -3.9193   -7.3111   -9.8083 C   0  0  0  0  0  0  0  0  0  0  0  0
   -2.1595   -7.3760  -12.3489 S   0  0  0  0  0  0  0  0  0  0  0  0
   -1.5103   -5.7307  -12.7110 C   0  0  0  0  0  0  0  0  0  0  0  0
   -0.9175   -5.7654  -14.0809 C   0  0  0  0  0  0  0  0  0  0  0  0
   -1.3339   -4.9413  -15.0577 N   0  0  0  0  0  0  0  0  0  0  0  0
   -0.7972   -4.9689  -16.3012 C   0  0  0  0  0  0  0  0  0  0  0  0
   -1.2267   -4.1242  -17.2980 C   0  0  0  0  0  0  0  0  0  0  0  0
   -0.6707   -4.1504  -18.5942 C   0  0  0  0  0  0  0  0  0  0  0  0
    0.3294   -5.0498  -18.8588 C   0  0  0  0  0  0  0  0  0  0  0  0
    0.7816   -5.9170  -17.8636 C   0  0  0  0  0  0  0  0  0  0  0  0
    0.2108   -5.8592  -16.6090 C   0  0  0  0  0  0  0  0  0  0  0  0
    0.6306   -6.7007  -15.5988 C   0  0  0  0  0  0  0  0  0  0  0  0
    1.5522   -7.5157  -15.8784 O   0  0  0  0  0  0  0  0  0  0  0  0
    0.0641   -6.6339  -14.3772 N   0  0  0  0  0  0  0  0  0  0  0  0
    1.7774   -6.8013  -18.1548 F   0  0  0  0  0  0  0  0  0  0  0  0
   -1.1319   -3.3002  -19.5248 O   0  0  0  0  0  0  0  0  0  0  0  0
   -0.7855   -2.9150  -20.7765 C   0  0  0  0  0  0  0  0  0  0  0  0
   -1.6659   -1.9021  -21.4647 C   0  0  0  0  0  0  0  0  0  0  0  0
   -2.2299   -2.3116  -22.8362 C   0  0  0  0  0  0  0  0  0  0  0  0
   -3.0905   -2.2433  -21.6503 C   0  0  0  0  0  0  0  0  0  0  0  0
  1  2  1  0
  2  3  1  0
  3  4  1  0
  4  5  1  0
  5  6  1  0
  6  7  1  0
  5  8  1  0
  8  9  1  0
  9 10  1  0
 10 11  2  0
 11 12  1  0
 12 13  2  0
 13 14  1  0
 14 15  2  0
 15 16  1  0
 16 17  2  0
 17 18  1  0
 18 19  2  0
 18 20  1  0
 16 21  1  0
 14 22  1  0
 22 23  1  0
 23 24  1  0
 24 25  1  0
 25 26  1  0
  7  2  1  0
 20 10  1  0
 17 12  1  0
 26 24  1  0
M  END
$$$$
