
     RDKit          3D

 26 29  0  0  0  0  0  0  0  0999 V2000
   -3.1615   -9.7675   -9.1303 O   0  0  0  0  0  0  0  0  0  0  0  0
   -3.1554   -8.8396  -10.2013 C   0  0  0  0  0  0  0  0  0  0  0  0
   -4.2002   -9.2872  -11.1583 C   0  0  0  0  0  0  0  0  0  0  0  0
   -4.9228   -8.2192  -11.8988 C   0  0  0  0  0  0  0  0  0  0  0  0
   -4.0916   -6.9665  -11.9208 C   0  0  0  0  0  0  0  0  0  0  0  0
   -3.9831   -6.4799  -10.4925 C   0  0  0  0  0  0  0  0  0  0  0  0
   -3.3415   -7.4961   -9.5932 C   0  0  0  0  0  0  0  0  0  0  0  0
   -2.4258   -7.2992  -12.5391 S   0  0  0  0  0  0  0  0  0  0  0  0
   -1.4844   -5.7769  -12.7759 C   0  0  0  0  0  0  0  0  0  0  0  0
   -0.8930   -5.8146  -14.1464 C   0  0  0  0  0  0  0  0  0  0  0  0
   -1.2904   -4.9734  -15.1164 N   0  0  0  0  0  0  0  0  0  0  0  0
   -0.7549   -5.0036  -16.3603 C   0  0  0  0  0  0  0  0  0  0  0  0
   -1.1649   -4.1414  -17.3503 C   0  0  0  0  0  0  0  0  0  0  0  0
   -0.6100   -4.1703  -18.6469 C   0  0  0  0  0  0  0  0  0  0  0  0
    0.3688   -5.0906  -18.9191 C   0  0  0  0  0  0  0  0  0  0  0  0
    0.8010   -5.9759  -17.9309 C   0  0  0  0  0  0  0  0  0  0  0  0
    0.2321   -5.9147  -16.6756 C   0  0  0  0  0  0  0  0  0  0  0  0
    0.6325   -6.7736  -15.6722 C   0  0  0  0  0  0  0  0  0  0  0  0
    1.5348   -7.6076  -15.9587 O   0  0  0  0  0  0  0  0  0  0  0  0
    0.0681   -6.7033  -14.4499 N   0  0  0  0  0  0  0  0  0  0  0  0
    1.7758   -6.8808  -18.2296 F   0  0  0  0  0  0  0  0  0  0  0  0
   -1.0517   -3.3023  -19.5705 O   0  0  0  0  0  0  0  0  0  0  0  0
   -0.6970   -2.9157  -20.8195 C   0  0  0  0  0  0  0  0  0  0  0  0
   -1.4845   -1.7974  -21.4549 C   0  0  0  0  0  0  0  0  0  0  0  0
   -2.0560   -2.0784  -22.8555 C   0  0  0  0  0  0  0  0  0  0  0  0
   -2.9281   -2.0139  -21.6778 C   0  0  0  0  0  0  0  0  0  0  0  0
  1  2  1  0
  2  3  1  0
  3  4  1  0
  4  5  1  0
  5  6  1  0
  6  7  1  0
  5  8  1  0
  8  9  1  0
  9 10  1  0
 10 11  2  0
 11 12  1  0
 12 13  2  0
 13 14  1  0
 14 15  2  0
 15 16  1  0
 16 17  2  0
 17 18  1  0
 18 19  2  0
 18 20  1  0
 16 21  1  0
 14 22  1  0
 22 23  1  0
 23 24  1  0
 24 25  1  0
 25 26  1  0
  7  2  1  0
 20 10  1  0
 17 12  1  0
 26 24  1  0
M  END
$$$$
