
     RDKit          3D

 26 29  0  0  0  0  0  0  0  0999 V2000
   -3.5659   -9.2716   -8.7238 O   0  0  0  0  0  0  0  0  0  0  0  0
   -3.3251   -8.6696   -9.9838 C   0  0  0  0  0  0  0  0  0  0  0  0
   -3.5744   -9.7151  -11.0098 C   0  0  0  0  0  0  0  0  0  0  0  0
   -4.1330   -9.2512  -12.3074 C   0  0  0  0  0  0  0  0  0  0  0  0
   -3.8292   -7.7909  -12.4969 C   0  0  0  0  0  0  0  0  0  0  0  0
   -4.5866   -7.0367  -11.4261 C   0  0  0  0  0  0  0  0  0  0  0  0
   -4.1874   -7.4604  -10.0426 C   0  0  0  0  0  0  0  0  0  0  0  0
   -2.0645   -7.4590  -12.2895 S   0  0  0  0  0  0  0  0  0  0  0  0
   -1.6434   -5.7665  -12.7558 C   0  0  0  0  0  0  0  0  0  0  0  0
   -0.9704   -5.8141  -14.0878 C   0  0  0  0  0  0  0  0  0  0  0  0
   -1.3013   -4.9733  -15.0829 N   0  0  0  0  0  0  0  0  0  0  0  0
   -0.6917   -5.0126  -16.2920 C   0  0  0  0  0  0  0  0  0  0  0  0
   -1.0338   -4.1507  -17.3077 C   0  0  0  0  0  0  0  0  0  0  0  0
   -0.4017   -4.1889  -18.5683 C   0  0  0  0  0  0  0  0  0  0  0  0
    0.5840   -5.1183  -18.7777 C   0  0  0  0  0  0  0  0  0  0  0  0
    0.9481   -6.0034  -17.7623 C   0  0  0  0  0  0  0  0  0  0  0  0
    0.3048   -5.9329  -16.5440 C   0  0  0  0  0  0  0  0  0  0  0  0
    0.6365   -6.7913  -15.5154 C   0  0  0  0  0  0  0  0  0  0  0  0
    1.5475   -7.6337  -15.7440 O   0  0  0  0  0  0  0  0  0  0  0  0
   -0.0002   -6.7118  -14.3298 N   0  0  0  0  0  0  0  0  0  0  0  0
    1.9316   -6.9174  -17.9985 F   0  0  0  0  0  0  0  0  0  0  0  0
   -0.7793   -3.3209  -19.5197 O   0  0  0  0  0  0  0  0  0  0  0  0
   -0.4380   -3.0412  -20.8005 C   0  0  0  0  0  0  0  0  0  0  0  0
   -1.1978   -1.9437  -21.5025 C   0  0  0  0  0  0  0  0  0  0  0  0
   -1.5188   -2.1817  -22.9882 C   0  0  0  0  0  0  0  0  0  0  0  0
   -2.5678   -2.2435  -21.9648 C   0  0  0  0  0  0  0  0  0  0  0  0
  1  2  1  0
  2  3  1  0
  3  4  1  0
  4  5  1  0
  5  6  1  0
  6  7  1  0
  5  8  1  0
  8  9  1  0
  9 10  1  0
 10 11  2  0
 11 12  1  0
 12 13  2  0
 13 14  1  0
 14 15  2  0
 15 16  1  0
 16 17  2  0
 17 18  1  0
 18 19  2  0
 18 20  1  0
 16 21  1  0
 14 22  1  0
 22 23  1  0
 23 24  1  0
 24 25  1  0
 25 26  1  0
  7  2  1  0
 20 10  1  0
 17 12  1  0
 26 24  1  0
M  END
$$$$
