
     RDKit          3D

 26 29  0  0  0  0  0  0  0  0999 V2000
   -2.3811   -3.4413   -8.0952 O   0  0  0  0  0  0  0  0  0  0  0  0
   -2.0588   -3.7139   -9.4479 C   0  0  0  0  0  0  0  0  0  0  0  0
   -1.6418   -2.4233  -10.0546 C   0  0  0  0  0  0  0  0  0  0  0  0
   -0.5929   -2.4930  -11.1063 C   0  0  0  0  0  0  0  0  0  0  0  0
   -0.5629   -3.8734  -11.7014 C   0  0  0  0  0  0  0  0  0  0  0  0
   -0.1170   -4.8192  -10.6080 C   0  0  0  0  0  0  0  0  0  0  0  0
   -1.0426   -4.7985   -9.4266 C   0  0  0  0  0  0  0  0  0  0  0  0
   -2.2060   -4.3795  -12.2597 S   0  0  0  0  0  0  0  0  0  0  0  0
   -2.1684   -5.9905  -13.0739 C   0  0  0  0  0  0  0  0  0  0  0  0
   -1.3797   -5.8468  -14.3336 C   0  0  0  0  0  0  0  0  0  0  0  0
   -1.7136   -4.9582  -15.2850 N   0  0  0  0  0  0  0  0  0  0  0  0
   -0.9994   -4.8240  -16.4282 C   0  0  0  0  0  0  0  0  0  0  0  0
   -1.3450   -3.9137  -17.3995 C   0  0  0  0  0  0  0  0  0  0  0  0
   -0.6041   -3.7715  -18.5915 C   0  0  0  0  0  0  0  0  0  0  0  0
    0.4941   -4.5706  -18.7782 C   0  0  0  0  0  0  0  0  0  0  0  0
    0.8641   -5.5015  -17.8070 C   0  0  0  0  0  0  0  0  0  0  0  0
    0.1122   -5.6091  -16.6554 C   0  0  0  0  0  0  0  0  0  0  0  0
    0.4459   -6.5182  -15.6721 C   0  0  0  0  0  0  0  0  0  0  0  0
    1.4621   -7.2371  -15.8781 O   0  0  0  0  0  0  0  0  0  0  0  0
   -0.2976   -6.6132  -14.5515 N   0  0  0  0  0  0  0  0  0  0  0  0
    1.9606   -6.2831  -18.0192 F   0  0  0  0  0  0  0  0  0  0  0  0
   -0.9912   -2.8646  -19.5021 O   0  0  0  0  0  0  0  0  0  0  0  0
   -0.5272   -2.3780  -20.6781 C   0  0  0  0  0  0  0  0  0  0  0  0
   -1.3712   -1.3516  -21.3914 C   0  0  0  0  0  0  0  0  0  0  0  0
   -1.2272   -1.2978  -22.9222 C   0  0  0  0  0  0  0  0  0  0  0  0
   -2.4346   -1.8416  -22.2913 C   0  0  0  0  0  0  0  0  0  0  0  0
  1  2  1  0
  2  3  1  0
  3  4  1  0
  4  5  1  0
  5  6  1  0
  6  7  1  0
  5  8  1  0
  8  9  1  0
  9 10  1  0
 10 11  2  0
 11 12  1  0
 12 13  2  0
 13 14  1  0
 14 15  2  0
 15 16  1  0
 16 17  2  0
 17 18  1  0
 18 19  2  0
 18 20  1  0
 16 21  1  0
 14 22  1  0
 22 23  1  0
 23 24  1  0
 24 25  1  0
 25 26  1  0
  7  2  1  0
 20 10  1  0
 17 12  1  0
 26 24  1  0
M  END
$$$$
