
     RDKit          3D

 26 29  0  0  0  0  0  0  0  0999 V2000
   -2.9612   -9.4495   -8.8193 O   0  0  0  0  0  0  0  0  0  0  0  0
   -2.9714   -8.6610   -9.9967 C   0  0  0  0  0  0  0  0  0  0  0  0
   -3.8383   -9.3677  -10.9749 C   0  0  0  0  0  0  0  0  0  0  0  0
   -4.6200   -8.5129  -11.9072 C   0  0  0  0  0  0  0  0  0  0  0  0
   -3.9722   -7.1606  -12.0188 C   0  0  0  0  0  0  0  0  0  0  0  0
   -4.0821   -6.5017  -10.6614 C   0  0  0  0  0  0  0  0  0  0  0  0
   -3.4039   -7.2995   -9.5860 C   0  0  0  0  0  0  0  0  0  0  0  0
   -2.2210   -7.3086  -12.4419 S   0  0  0  0  0  0  0  0  0  0  0  0
   -1.4832   -5.7015  -12.8058 C   0  0  0  0  0  0  0  0  0  0  0  0
   -0.8712   -5.7778  -14.1656 C   0  0  0  0  0  0  0  0  0  0  0  0
   -1.2629   -4.9734  -15.1685 N   0  0  0  0  0  0  0  0  0  0  0  0
   -0.7087   -5.0386  -16.4029 C   0  0  0  0  0  0  0  0  0  0  0  0
   -1.1129   -4.2139  -17.4267 C   0  0  0  0  0  0  0  0  0  0  0  0
   -0.5386   -4.2793  -18.7135 C   0  0  0  0  0  0  0  0  0  0  0  0
    0.4537   -5.1974  -18.9409 C   0  0  0  0  0  0  0  0  0  0  0  0
    0.8804   -6.0450  -17.9178 C   0  0  0  0  0  0  0  0  0  0  0  0
    0.2923   -5.9488  -16.6736 C   0  0  0  0  0  0  0  0  0  0  0  0
    0.6867   -6.7698  -15.6367 C   0  0  0  0  0  0  0  0  0  0  0  0
    1.6018   -7.6029  -15.8824 O   0  0  0  0  0  0  0  0  0  0  0  0
    0.1035   -6.6655  -14.4257 N   0  0  0  0  0  0  0  0  0  0  0  0
    1.8689   -6.9485  -18.1723 F   0  0  0  0  0  0  0  0  0  0  0  0
   -0.9755   -3.4471  -19.6715 O   0  0  0  0  0  0  0  0  0  0  0  0
   -0.6313   -3.1283  -20.9424 C   0  0  0  0  0  0  0  0  0  0  0  0
   -1.4070   -2.0274  -21.6213 C   0  0  0  0  0  0  0  0  0  0  0  0
   -2.5430   -2.4738  -22.5579 C   0  0  0  0  0  0  0  0  0  0  0  0
   -2.8281   -1.8619  -21.2557 C   0  0  0  0  0  0  0  0  0  0  0  0
  1  2  1  0
  2  3  1  0
  3  4  1  0
  4  5  1  0
  5  6  1  0
  6  7  1  0
  5  8  1  0
  8  9  1  0
  9 10  1  0
 10 11  2  0
 11 12  1  0
 12 13  2  0
 13 14  1  0
 14 15  2  0
 15 16  1  0
 16 17  2  0
 17 18  1  0
 18 19  2  0
 18 20  1  0
 16 21  1  0
 14 22  1  0
 22 23  1  0
 23 24  1  0
 24 25  1  0
 25 26  1  0
  7  2  1  0
 20 10  1  0
 17 12  1  0
 26 24  1  0
M  END
$$$$
