
     RDKit          3D

 26 29  0  0  0  0  0  0  0  0999 V2000
   -3.2787   -9.6429   -9.0453 O   0  0  0  0  0  0  0  0  0  0  0  0
   -3.2488   -8.7702  -10.1614 C   0  0  0  0  0  0  0  0  0  0  0  0
   -4.1594   -9.3519  -11.1813 C   0  0  0  0  0  0  0  0  0  0  0  0
   -4.8949   -8.3872  -12.0412 C   0  0  0  0  0  0  0  0  0  0  0  0
   -4.1708   -7.0697  -12.0587 C   0  0  0  0  0  0  0  0  0  0  0  0
   -4.2363   -6.5077  -10.6556 C   0  0  0  0  0  0  0  0  0  0  0  0
   -3.6003   -7.4203   -9.6478 C   0  0  0  0  0  0  0  0  0  0  0  0
   -2.4330   -7.2858  -12.5070 S   0  0  0  0  0  0  0  0  0  0  0  0
   -1.6273   -5.7050  -12.8408 C   0  0  0  0  0  0  0  0  0  0  0  0
   -0.9935   -5.7917  -14.1900 C   0  0  0  0  0  0  0  0  0  0  0  0
   -1.3542   -4.9807  -15.1992 N   0  0  0  0  0  0  0  0  0  0  0  0
   -0.7802   -5.0555  -16.4240 C   0  0  0  0  0  0  0  0  0  0  0  0
   -1.1527   -4.2240  -17.4542 C   0  0  0  0  0  0  0  0  0  0  0  0
   -0.5577   -4.2993  -18.7310 C   0  0  0  0  0  0  0  0  0  0  0  0
    0.4225   -5.2342  -18.9417 C   0  0  0  0  0  0  0  0  0  0  0  0
    0.8171   -6.0889  -17.9118 C   0  0  0  0  0  0  0  0  0  0  0  0
    0.2095   -5.9826  -16.6778 C   0  0  0  0  0  0  0  0  0  0  0  0
    0.5721   -6.8102  -15.6345 C   0  0  0  0  0  0  0  0  0  0  0  0
    1.4769   -7.6588  -15.8647 O   0  0  0  0  0  0  0  0  0  0  0  0
   -0.0298   -6.6959  -14.4336 N   0  0  0  0  0  0  0  0  0  0  0  0
    1.7942   -7.0092  -18.1496 F   0  0  0  0  0  0  0  0  0  0  0  0
   -0.9639   -3.4597  -19.6962 O   0  0  0  0  0  0  0  0  0  0  0  0
   -0.5981   -3.1531  -20.9640 C   0  0  0  0  0  0  0  0  0  0  0  0
   -1.3496   -2.0459  -21.6598 C   0  0  0  0  0  0  0  0  0  0  0  0
   -2.0219   -2.4142  -22.9938 C   0  0  0  0  0  0  0  0  0  0  0  0
   -2.8150   -2.1812  -21.7820 C   0  0  0  0  0  0  0  0  0  0  0  0
  1  2  1  0
  2  3  1  0
  3  4  1  0
  4  5  1  0
  5  6  1  0
  6  7  1  0
  5  8  1  0
  8  9  1  0
  9 10  1  0
 10 11  2  0
 11 12  1  0
 12 13  2  0
 13 14  1  0
 14 15  2  0
 15 16  1  0
 16 17  2  0
 17 18  1  0
 18 19  2  0
 18 20  1  0
 16 21  1  0
 14 22  1  0
 22 23  1  0
 23 24  1  0
 24 25  1  0
 25 26  1  0
  7  2  1  0
 20 10  1  0
 17 12  1  0
 26 24  1  0
M  END
$$$$
