
     RDKit          3D

 26 29  0  0  0  0  0  0  0  0999 V2000
   -3.3139   -9.5133   -8.8417 O   0  0  0  0  0  0  0  0  0  0  0  0
   -3.1991   -8.7871  -10.0531 C   0  0  0  0  0  0  0  0  0  0  0  0
   -3.8649   -9.6017  -11.1025 C   0  0  0  0  0  0  0  0  0  0  0  0
   -4.5521   -8.8523  -12.1874 C   0  0  0  0  0  0  0  0  0  0  0  0
   -3.9817   -7.4645  -12.2847 C   0  0  0  0  0  0  0  0  0  0  0  0
   -4.3333   -6.7483  -10.9993 C   0  0  0  0  0  0  0  0  0  0  0  0
   -3.7731   -7.4412   -9.7914 C   0  0  0  0  0  0  0  0  0  0  0  0
   -2.1814   -7.5081  -12.4404 S   0  0  0  0  0  0  0  0  0  0  0  0
   -1.5019   -5.8747  -12.8007 C   0  0  0  0  0  0  0  0  0  0  0  0
   -0.9120   -5.9181  -14.1716 C   0  0  0  0  0  0  0  0  0  0  0  0
   -1.3006   -5.0719  -15.1408 N   0  0  0  0  0  0  0  0  0  0  0  0
   -0.7664   -5.1073  -16.3852 C   0  0  0  0  0  0  0  0  0  0  0  0
   -1.1674   -4.2400  -17.3743 C   0  0  0  0  0  0  0  0  0  0  0  0
   -0.6139   -4.2742  -18.6714 C   0  0  0  0  0  0  0  0  0  0  0  0
    0.3544   -5.2052  -18.9448 C   0  0  0  0  0  0  0  0  0  0  0  0
    0.7774   -6.0960  -17.9575 C   0  0  0  0  0  0  0  0  0  0  0  0
    0.2101   -6.0292  -16.7018 C   0  0  0  0  0  0  0  0  0  0  0  0
    0.6016   -6.8932  -15.6993 C   0  0  0  0  0  0  0  0  0  0  0  0
    1.4944   -7.7370  -15.9869 O   0  0  0  0  0  0  0  0  0  0  0  0
    0.0389   -6.8174  -14.4765 N   0  0  0  0  0  0  0  0  0  0  0  0
    1.7418   -7.0115  -18.2575 F   0  0  0  0  0  0  0  0  0  0  0  0
   -1.0465   -3.4008  -19.5941 O   0  0  0  0  0  0  0  0  0  0  0  0
   -0.7311   -3.0647  -20.8680 C   0  0  0  0  0  0  0  0  0  0  0  0
   -1.5194   -1.9525  -21.5129 C   0  0  0  0  0  0  0  0  0  0  0  0
   -2.2045   -2.2903  -22.8484 C   0  0  0  0  0  0  0  0  0  0  0  0
   -2.9830   -2.1185  -21.6171 C   0  0  0  0  0  0  0  0  0  0  0  0
  1  2  1  0
  2  3  1  0
  3  4  1  0
  4  5  1  0
  5  6  1  0
  6  7  1  0
  5  8  1  0
  8  9  1  0
  9 10  1  0
 10 11  2  0
 11 12  1  0
 12 13  2  0
 13 14  1  0
 14 15  2  0
 15 16  1  0
 16 17  2  0
 17 18  1  0
 18 19  2  0
 18 20  1  0
 16 21  1  0
 14 22  1  0
 22 23  1  0
 23 24  1  0
 24 25  1  0
 25 26  1  0
  7  2  1  0
 20 10  1  0
 17 12  1  0
 26 24  1  0
M  END
$$$$
