
     RDKit          3D

 26 29  0  0  0  0  0  0  0  0999 V2000
   -3.4990   -9.3089   -8.8725 O   0  0  0  0  0  0  0  0  0  0  0  0
   -3.3345   -8.6163  -10.0978 C   0  0  0  0  0  0  0  0  0  0  0  0
   -3.8546   -9.5097  -11.1651 C   0  0  0  0  0  0  0  0  0  0  0  0
   -4.4994   -8.8466  -12.3294 C   0  0  0  0  0  0  0  0  0  0  0  0
   -4.0187   -7.4258  -12.4337 C   0  0  0  0  0  0  0  0  0  0  0  0
   -4.5228   -6.6949  -11.2088 C   0  0  0  0  0  0  0  0  0  0  0  0
   -4.0182   -7.3066   -9.9344 C   0  0  0  0  0  0  0  0  0  0  0  0
   -2.2128   -7.3468  -12.4433 S   0  0  0  0  0  0  0  0  0  0  0  0
   -1.6183   -5.6955  -12.8667 C   0  0  0  0  0  0  0  0  0  0  0  0
   -0.9959   -5.7681  -14.2220 C   0  0  0  0  0  0  0  0  0  0  0  0
   -1.3580   -4.9400  -15.2167 N   0  0  0  0  0  0  0  0  0  0  0  0
   -0.7943   -5.0019  -16.4470 C   0  0  0  0  0  0  0  0  0  0  0  0
   -1.1682   -4.1529  -17.4623 C   0  0  0  0  0  0  0  0  0  0  0  0
   -0.5839   -4.2147  -18.7448 C   0  0  0  0  0  0  0  0  0  0  0  0
    0.3869   -5.1544  -18.9766 C   0  0  0  0  0  0  0  0  0  0  0  0
    0.7827   -6.0269  -17.9620 C   0  0  0  0  0  0  0  0  0  0  0  0
    0.1858   -5.9333  -16.7218 C   0  0  0  0  0  0  0  0  0  0  0  0
    0.5498   -6.7786  -15.6933 C   0  0  0  0  0  0  0  0  0  0  0  0
    1.4459   -7.6310  -15.9428 O   0  0  0  0  0  0  0  0  0  0  0  0
   -0.0416   -6.6765  -14.4861 N   0  0  0  0  0  0  0  0  0  0  0  0
    1.7504   -6.9515  -18.2207 F   0  0  0  0  0  0  0  0  0  0  0  0
   -0.9909   -3.3583  -19.6947 O   0  0  0  0  0  0  0  0  0  0  0  0
   -0.5952   -2.9931  -20.9378 C   0  0  0  0  0  0  0  0  0  0  0  0
   -1.4660   -2.0183  -21.6902 C   0  0  0  0  0  0  0  0  0  0  0  0
   -0.7636   -1.1647  -22.7603 C   0  0  0  0  0  0  0  0  0  0  0  0
   -1.6729   -2.2537  -23.1332 C   0  0  0  0  0  0  0  0  0  0  0  0
  1  2  1  0
  2  3  1  0
  3  4  1  0
  4  5  1  0
  5  6  1  0
  6  7  1  0
  5  8  1  0
  8  9  1  0
  9 10  1  0
 10 11  2  0
 11 12  1  0
 12 13  2  0
 13 14  1  0
 14 15  2  0
 15 16  1  0
 16 17  2  0
 17 18  1  0
 18 19  2  0
 18 20  1  0
 16 21  1  0
 14 22  1  0
 22 23  1  0
 23 24  1  0
 24 25  1  0
 25 26  1  0
  7  2  1  0
 20 10  1  0
 17 12  1  0
 26 24  1  0
M  END
$$$$
