
     RDKit          3D

 26 29  0  0  0  0  0  0  0  0999 V2000
   -2.5653   -2.9574   -8.3635 O   0  0  0  0  0  0  0  0  0  0  0  0
   -2.2667   -3.4377   -9.6629 C   0  0  0  0  0  0  0  0  0  0  0  0
   -1.8574   -2.2586  -10.4691 C   0  0  0  0  0  0  0  0  0  0  0  0
   -0.8268   -2.4953  -11.5144 C   0  0  0  0  0  0  0  0  0  0  0  0
   -0.8097   -3.9513  -11.8888 C   0  0  0  0  0  0  0  0  0  0  0  0
   -0.3472   -4.7184  -10.6696 C   0  0  0  0  0  0  0  0  0  0  0  0
   -1.2525   -4.5106   -9.4905 C   0  0  0  0  0  0  0  0  0  0  0  0
   -2.4631   -4.5301  -12.3347 S   0  0  0  0  0  0  0  0  0  0  0  0
   -2.4150   -6.1635  -13.1025 C   0  0  0  0  0  0  0  0  0  0  0  0
   -1.5736   -6.0651  -14.3320 C   0  0  0  0  0  0  0  0  0  0  0  0
   -1.8453   -5.1864  -15.3120 N   0  0  0  0  0  0  0  0  0  0  0  0
   -1.0831   -5.0932  -16.4280 C   0  0  0  0  0  0  0  0  0  0  0  0
   -1.3651   -4.1930  -17.4288 C   0  0  0  0  0  0  0  0  0  0  0  0
   -0.5742   -4.0935  -18.5926 C   0  0  0  0  0  0  0  0  0  0  0  0
    0.5082   -4.9249  -18.7207 C   0  0  0  0  0  0  0  0  0  0  0  0
    0.8141   -5.8465  -17.7187 C   0  0  0  0  0  0  0  0  0  0  0  0
    0.0146   -5.9119  -16.5963 C   0  0  0  0  0  0  0  0  0  0  0  0
    0.2844   -6.8104  -15.5841 C   0  0  0  0  0  0  0  0  0  0  0  0
    1.2879   -7.5599  -15.7363 O   0  0  0  0  0  0  0  0  0  0  0  0
   -0.5051   -6.8640  -14.4926 N   0  0  0  0  0  0  0  0  0  0  0  0
    1.8964   -6.6609  -17.8728 F   0  0  0  0  0  0  0  0  0  0  0  0
   -0.9001   -3.1943  -19.5342 O   0  0  0  0  0  0  0  0  0  0  0  0
   -0.3736   -2.7382  -20.6961 C   0  0  0  0  0  0  0  0  0  0  0  0
   -1.1797   -1.7348  -21.4823 C   0  0  0  0  0  0  0  0  0  0  0  0
   -1.2171   -1.9373  -23.0069 C   0  0  0  0  0  0  0  0  0  0  0  0
   -2.3916   -2.2176  -22.1741 C   0  0  0  0  0  0  0  0  0  0  0  0
  1  2  1  0
  2  3  1  0
  3  4  1  0
  4  5  1  0
  5  6  1  0
  6  7  1  0
  5  8  1  0
  8  9  1  0
  9 10  1  0
 10 11  2  0
 11 12  1  0
 12 13  2  0
 13 14  1  0
 14 15  2  0
 15 16  1  0
 16 17  2  0
 17 18  1  0
 18 19  2  0
 18 20  1  0
 16 21  1  0
 14 22  1  0
 22 23  1  0
 23 24  1  0
 24 25  1  0
 25 26  1  0
  7  2  1  0
 20 10  1  0
 17 12  1  0
 26 24  1  0
M  END
$$$$
