
     RDKit          3D

 26 29  0  0  0  0  0  0  0  0999 V2000
   -3.4501   -9.1089   -8.6852 O   0  0  0  0  0  0  0  0  0  0  0  0
   -3.2697   -8.4894   -9.9469 C   0  0  0  0  0  0  0  0  0  0  0  0
   -3.6526   -9.4936  -10.9729 C   0  0  0  0  0  0  0  0  0  0  0  0
   -4.2788   -8.9674  -12.2147 C   0  0  0  0  0  0  0  0  0  0  0  0
   -3.9082   -7.5215  -12.3957 C   0  0  0  0  0  0  0  0  0  0  0  0
   -4.5407   -6.7544  -11.2554 C   0  0  0  0  0  0  0  0  0  0  0  0
   -4.0647   -7.2339   -9.9151 C   0  0  0  0  0  0  0  0  0  0  0  0
   -2.1171   -7.2916  -12.3149 S   0  0  0  0  0  0  0  0  0  0  0  0
   -1.6310   -5.6364  -12.8476 C   0  0  0  0  0  0  0  0  0  0  0  0
   -0.9847   -5.7598  -14.1879 C   0  0  0  0  0  0  0  0  0  0  0  0
   -1.3703   -5.0114  -15.2356 N   0  0  0  0  0  0  0  0  0  0  0  0
   -0.7851   -5.1195  -16.4525 C   0  0  0  0  0  0  0  0  0  0  0  0
   -1.1831   -4.3520  -17.5222 C   0  0  0  0  0  0  0  0  0  0  0  0
   -0.5766   -4.4622  -18.7910 C   0  0  0  0  0  0  0  0  0  0  0  0
    0.4415   -5.3658  -18.9530 C   0  0  0  0  0  0  0  0  0  0  0  0
    0.8625   -6.1556  -17.8824 C   0  0  0  0  0  0  0  0  0  0  0  0
    0.2425   -6.0169  -16.6579 C   0  0  0  0  0  0  0  0  0  0  0  0
    0.6303   -6.7804  -15.5755 C   0  0  0  0  0  0  0  0  0  0  0  0
    1.5698   -7.6017  -15.7614 O   0  0  0  0  0  0  0  0  0  0  0  0
    0.0159   -6.6350  -14.3843 N   0  0  0  0  0  0  0  0  0  0  0  0
    1.8771   -7.0460  -18.0722 F   0  0  0  0  0  0  0  0  0  0  0  0
   -1.0090   -3.6850  -19.7962 O   0  0  0  0  0  0  0  0  0  0  0  0
   -0.5697   -3.3113  -21.0220 C   0  0  0  0  0  0  0  0  0  0  0  0
   -1.4625   -2.4126  -21.8403 C   0  0  0  0  0  0  0  0  0  0  0  0
   -1.7279   -1.0108  -21.2646 C   0  0  0  0  0  0  0  0  0  0  0  0
   -0.8609   -1.2010  -22.4324 C   0  0  0  0  0  0  0  0  0  0  0  0
  1  2  1  0
  2  3  1  0
  3  4  1  0
  4  5  1  0
  5  6  1  0
  6  7  1  0
  5  8  1  0
  8  9  1  0
  9 10  1  0
 10 11  2  0
 11 12  1  0
 12 13  2  0
 13 14  1  0
 14 15  2  0
 15 16  1  0
 16 17  2  0
 17 18  1  0
 18 19  2  0
 18 20  1  0
 16 21  1  0
 14 22  1  0
 22 23  1  0
 23 24  1  0
 24 25  1  0
 25 26  1  0
  7  2  1  0
 20 10  1  0
 17 12  1  0
 26 24  1  0
M  END
$$$$
