
     RDKit          3D

 26 29  0  0  0  0  0  0  0  0999 V2000
   -3.4684   -9.0983   -8.6704 O   0  0  0  0  0  0  0  0  0  0  0  0
   -3.3216   -8.5060   -9.9493 C   0  0  0  0  0  0  0  0  0  0  0  0
   -3.7559   -9.5229  -10.9419 C   0  0  0  0  0  0  0  0  0  0  0  0
   -4.4160   -9.0099  -12.1716 C   0  0  0  0  0  0  0  0  0  0  0  0
   -4.0284   -7.5742  -12.3934 C   0  0  0  0  0  0  0  0  0  0  0  0
   -4.6086   -6.7750  -11.2474 C   0  0  0  0  0  0  0  0  0  0  0  0
   -4.0945   -7.2369   -9.9150 C   0  0  0  0  0  0  0  0  0  0  0  0
   -2.2320   -7.3731  -12.3784 S   0  0  0  0  0  0  0  0  0  0  0  0
   -1.7430   -5.6985  -12.8430 C   0  0  0  0  0  0  0  0  0  0  0  0
   -1.1040   -5.7670  -14.1908 C   0  0  0  0  0  0  0  0  0  0  0  0
   -1.4594   -4.9411  -15.1898 N   0  0  0  0  0  0  0  0  0  0  0  0
   -0.8806   -4.9994  -16.4132 C   0  0  0  0  0  0  0  0  0  0  0  0
   -1.2477   -4.1527  -17.4329 C   0  0  0  0  0  0  0  0  0  0  0  0
   -0.6477   -4.2107  -18.7083 C   0  0  0  0  0  0  0  0  0  0  0  0
    0.3318   -5.1442  -18.9284 C   0  0  0  0  0  0  0  0  0  0  0  0
    0.7208   -6.0142  -17.9092 C   0  0  0  0  0  0  0  0  0  0  0  0
    0.1086   -5.9245  -16.6762 C   0  0  0  0  0  0  0  0  0  0  0  0
    0.4656   -6.7675  -15.6435 C   0  0  0  0  0  0  0  0  0  0  0  0
    1.3700   -7.6143  -15.8822 O   0  0  0  0  0  0  0  0  0  0  0  0
   -0.1409   -6.6694  -14.4435 N   0  0  0  0  0  0  0  0  0  0  0  0
    1.6974   -6.9327  -18.1563 F   0  0  0  0  0  0  0  0  0  0  0  0
   -1.0487   -3.3567  -19.6630 O   0  0  0  0  0  0  0  0  0  0  0  0
   -0.6946   -3.0516  -20.9345 C   0  0  0  0  0  0  0  0  0  0  0  0
   -1.4789   -1.9727  -21.6385 C   0  0  0  0  0  0  0  0  0  0  0  0
   -1.0872   -1.6905  -23.0993 C   0  0  0  0  0  0  0  0  0  0  0  0
   -2.3410   -2.3756  -22.7677 C   0  0  0  0  0  0  0  0  0  0  0  0
  1  2  1  0
  2  3  1  0
  3  4  1  0
  4  5  1  0
  5  6  1  0
  6  7  1  0
  5  8  1  0
  8  9  1  0
  9 10  1  0
 10 11  2  0
 11 12  1  0
 12 13  2  0
 13 14  1  0
 14 15  2  0
 15 16  1  0
 16 17  2  0
 17 18  1  0
 18 19  2  0
 18 20  1  0
 16 21  1  0
 14 22  1  0
 22 23  1  0
 23 24  1  0
 24 25  1  0
 25 26  1  0
  7  2  1  0
 20 10  1  0
 17 12  1  0
 26 24  1  0
M  END
$$$$
