
     RDKit          3D

 26 29  0  0  0  0  0  0  0  0999 V2000
   -3.5570   -9.6257   -9.0865 O   0  0  0  0  0  0  0  0  0  0  0  0
   -3.3709   -8.7495  -10.1845 C   0  0  0  0  0  0  0  0  0  0  0  0
   -4.0596   -9.3699  -11.3458 C   0  0  0  0  0  0  0  0  0  0  0  0
   -4.6754   -8.4379  -12.3273 C   0  0  0  0  0  0  0  0  0  0  0  0
   -4.0210   -7.0882  -12.2240 C   0  0  0  0  0  0  0  0  0  0  0  0
   -4.3588   -6.5338  -10.8575 C   0  0  0  0  0  0  0  0  0  0  0  0
   -3.8693   -7.4188   -9.7484 C   0  0  0  0  0  0  0  0  0  0  0  0
   -2.2233   -7.2225  -12.3575 S   0  0  0  0  0  0  0  0  0  0  0  0
   -1.4577   -5.6248  -12.7053 C   0  0  0  0  0  0  0  0  0  0  0  0
   -0.8239   -5.7065  -14.0547 C   0  0  0  0  0  0  0  0  0  0  0  0
   -1.1695   -4.8778  -15.0548 N   0  0  0  0  0  0  0  0  0  0  0  0
   -0.5954   -4.9480  -16.2797 C   0  0  0  0  0  0  0  0  0  0  0  0
   -0.9524   -4.0983  -17.3006 C   0  0  0  0  0  0  0  0  0  0  0  0
   -0.3572   -4.1688  -18.5776 C   0  0  0  0  0  0  0  0  0  0  0  0
    0.6072   -5.1177  -18.7981 C   0  0  0  0  0  0  0  0  0  0  0  0
    0.9859   -5.9910  -17.7778 C   0  0  0  0  0  0  0  0  0  0  0  0
    0.3788   -5.8888  -16.5433 C   0  0  0  0  0  0  0  0  0  0  0  0
    0.7259   -6.7346  -15.5095 C   0  0  0  0  0  0  0  0  0  0  0  0
    1.6165   -7.5957  -15.7487 O   0  0  0  0  0  0  0  0  0  0  0  0
    0.1246   -6.6241  -14.3079 N   0  0  0  0  0  0  0  0  0  0  0  0
    1.9476   -6.9249  -18.0254 F   0  0  0  0  0  0  0  0  0  0  0  0
   -0.7479   -3.3112  -19.5333 O   0  0  0  0  0  0  0  0  0  0  0  0
   -0.4265   -3.0478  -20.8226 C   0  0  0  0  0  0  0  0  0  0  0  0
   -1.1469   -1.9117  -21.5044 C   0  0  0  0  0  0  0  0  0  0  0  0
   -1.2925   -2.0182  -23.0323 C   0  0  0  0  0  0  0  0  0  0  0  0
   -2.4447   -2.2065  -22.1443 C   0  0  0  0  0  0  0  0  0  0  0  0
  1  2  1  0
  2  3  1  0
  3  4  1  0
  4  5  1  0
  5  6  1  0
  6  7  1  0
  5  8  1  0
  8  9  1  0
  9 10  1  0
 10 11  2  0
 11 12  1  0
 12 13  2  0
 13 14  1  0
 14 15  2  0
 15 16  1  0
 16 17  2  0
 17 18  1  0
 18 19  2  0
 18 20  1  0
 16 21  1  0
 14 22  1  0
 22 23  1  0
 23 24  1  0
 24 25  1  0
 25 26  1  0
  7  2  1  0
 20 10  1  0
 17 12  1  0
 26 24  1  0
M  END
$$$$
