
     RDKit          3D

 26 29  0  0  0  0  0  0  0  0999 V2000
   -3.3689   -9.4583   -8.8628 O   0  0  0  0  0  0  0  0  0  0  0  0
   -3.2299   -8.7319  -10.0716 C   0  0  0  0  0  0  0  0  0  0  0  0
   -3.8378   -9.5650  -11.1412 C   0  0  0  0  0  0  0  0  0  0  0  0
   -4.5051   -8.8353  -12.2518 C   0  0  0  0  0  0  0  0  0  0  0  0
   -3.9666   -7.4338  -12.3330 C   0  0  0  0  0  0  0  0  0  0  0  0
   -4.3808   -6.7241  -11.0628 C   0  0  0  0  0  0  0  0  0  0  0  0
   -3.8461   -7.4003   -9.8340 C   0  0  0  0  0  0  0  0  0  0  0  0
   -2.1613   -7.4326  -12.4254 S   0  0  0  0  0  0  0  0  0  0  0  0
   -1.5099   -5.7805  -12.7509 C   0  0  0  0  0  0  0  0  0  0  0  0
   -0.8694   -5.8001  -14.0995 C   0  0  0  0  0  0  0  0  0  0  0  0
   -1.2306   -4.9451  -15.0715 N   0  0  0  0  0  0  0  0  0  0  0  0
   -0.6505   -4.9588  -16.2956 C   0  0  0  0  0  0  0  0  0  0  0  0
   -1.0237   -4.0825  -17.2877 C   0  0  0  0  0  0  0  0  0  0  0  0
   -0.4223   -4.0942  -18.5637 C   0  0  0  0  0  0  0  0  0  0  0  0
    0.5649   -5.0121  -18.8130 C   0  0  0  0  0  0  0  0  0  0  0  0
    0.9602   -5.9115  -17.8222 C   0  0  0  0  0  0  0  0  0  0  0  0
    0.3464   -5.8669  -16.5876 C   0  0  0  0  0  0  0  0  0  0  0  0
    0.7094   -6.7402  -15.5824 C   0  0  0  0  0  0  0  0  0  0  0  0
    1.6208   -7.5713  -15.8476 O   0  0  0  0  0  0  0  0  0  0  0  0
    0.1013   -6.6859  -14.3804 N   0  0  0  0  0  0  0  0  0  0  0  0
    1.9444   -6.8136  -18.0980 F   0  0  0  0  0  0  0  0  0  0  0  0
   -0.8295   -3.2129  -19.4906 O   0  0  0  0  0  0  0  0  0  0  0  0
   -0.4621   -2.8476  -20.7423 C   0  0  0  0  0  0  0  0  0  0  0  0
   -1.2568   -1.7552  -21.4130 C   0  0  0  0  0  0  0  0  0  0  0  0
   -1.4233   -1.8737  -22.9378 C   0  0  0  0  0  0  0  0  0  0  0  0
   -2.5473   -2.1234  -22.0290 C   0  0  0  0  0  0  0  0  0  0  0  0
  1  2  1  0
  2  3  1  0
  3  4  1  0
  4  5  1  0
  5  6  1  0
  6  7  1  0
  5  8  1  0
  8  9  1  0
  9 10  1  0
 10 11  2  0
 11 12  1  0
 12 13  2  0
 13 14  1  0
 14 15  2  0
 15 16  1  0
 16 17  2  0
 17 18  1  0
 18 19  2  0
 18 20  1  0
 16 21  1  0
 14 22  1  0
 22 23  1  0
 23 24  1  0
 24 25  1  0
 25 26  1  0
  7  2  1  0
 20 10  1  0
 17 12  1  0
 26 24  1  0
M  END
$$$$
