
     RDKit          3D

 26 29  0  0  0  0  0  0  0  0999 V2000
    0.2404   -1.9398   -9.3801 O   0  0  0  0  0  0  0  0  0  0  0  0
   -0.5574   -2.8600  -10.1046 C   0  0  0  0  0  0  0  0  0  0  0  0
   -0.5548   -4.1279   -9.3299 C   0  0  0  0  0  0  0  0  0  0  0  0
   -1.7986   -4.9409   -9.3841 C   0  0  0  0  0  0  0  0  0  0  0  0
   -2.5836   -4.5847  -10.6160 C   0  0  0  0  0  0  0  0  0  0  0  0
   -3.0334   -3.1491  -10.4568 C   0  0  0  0  0  0  0  0  0  0  0  0
   -1.8766   -2.2049  -10.3044 C   0  0  0  0  0  0  0  0  0  0  0  0
   -1.5579   -4.7009  -12.0999 S   0  0  0  0  0  0  0  0  0  0  0  0
   -2.1398   -5.9961  -13.2149 C   0  0  0  0  0  0  0  0  0  0  0  0
   -1.3366   -5.9119  -14.4708 C   0  0  0  0  0  0  0  0  0  0  0  0
   -1.6614   -5.0719  -15.4684 N   0  0  0  0  0  0  0  0  0  0  0  0
   -0.9340   -4.9916  -16.6084 C   0  0  0  0  0  0  0  0  0  0  0  0
   -1.2702   -4.1310  -17.6271 C   0  0  0  0  0  0  0  0  0  0  0  0
   -0.5156   -4.0451  -18.8159 C   0  0  0  0  0  0  0  0  0  0  0  0
    0.5865   -4.8491  -18.9504 C   0  0  0  0  0  0  0  0  0  0  0  0
    0.9473   -5.7303  -17.9304 C   0  0  0  0  0  0  0  0  0  0  0  0
    0.1820   -5.7837  -16.7838 C   0  0  0  0  0  0  0  0  0  0  0  0
    0.5063   -6.6425  -15.7534 C   0  0  0  0  0  0  0  0  0  0  0  0
    1.5265   -7.3677  -15.9120 O   0  0  0  0  0  0  0  0  0  0  0  0
   -0.2502   -6.6848  -14.6383 N   0  0  0  0  0  0  0  0  0  0  0  0
    2.0481   -6.5181  -18.0914 F   0  0  0  0  0  0  0  0  0  0  0  0
   -0.8941   -3.1850  -19.7742 O   0  0  0  0  0  0  0  0  0  0  0  0
   -0.4166   -2.7540  -20.9664 C   0  0  0  0  0  0  0  0  0  0  0  0
   -1.2210   -1.7153  -21.7072 C   0  0  0  0  0  0  0  0  0  0  0  0
   -1.0242   -1.6630  -23.2321 C   0  0  0  0  0  0  0  0  0  0  0  0
   -2.2600   -2.1896  -22.6431 C   0  0  0  0  0  0  0  0  0  0  0  0
  1  2  1  0
  2  3  1  0
  3  4  1  0
  4  5  1  0
  5  6  1  0
  6  7  1  0
  5  8  1  0
  8  9  1  0
  9 10  1  0
 10 11  2  0
 11 12  1  0
 12 13  2  0
 13 14  1  0
 14 15  2  0
 15 16  1  0
 16 17  2  0
 17 18  1  0
 18 19  2  0
 18 20  1  0
 16 21  1  0
 14 22  1  0
 22 23  1  0
 23 24  1  0
 24 25  1  0
 25 26  1  0
  7  2  1  0
 20 10  1  0
 17 12  1  0
 26 24  1  0
M  END
$$$$
