
     RDKit          3D

 26 29  0  0  0  0  0  0  0  0999 V2000
   -3.4439   -8.8629   -8.5237 O   0  0  0  0  0  0  0  0  0  0  0  0
   -3.2032   -8.3820   -9.8348 C   0  0  0  0  0  0  0  0  0  0  0  0
   -3.1532   -9.5727  -10.7224 C   0  0  0  0  0  0  0  0  0  0  0  0
   -3.6645   -9.3900  -12.1066 C   0  0  0  0  0  0  0  0  0  0  0  0
   -3.6250   -7.9323  -12.4732 C   0  0  0  0  0  0  0  0  0  0  0  0
   -4.6085   -7.2202  -11.5707 C   0  0  0  0  0  0  0  0  0  0  0  0
   -4.2687   -7.3851  -10.1180 C   0  0  0  0  0  0  0  0  0  0  0  0
   -1.9820   -7.2329  -12.1925 S   0  0  0  0  0  0  0  0  0  0  0  0
   -1.8440   -5.5615  -12.8610 C   0  0  0  0  0  0  0  0  0  0  0  0
   -1.1632   -5.6550  -14.1866 C   0  0  0  0  0  0  0  0  0  0  0  0
   -1.5559   -4.9209  -15.2418 N   0  0  0  0  0  0  0  0  0  0  0  0
   -0.9395   -5.0019  -16.4453 C   0  0  0  0  0  0  0  0  0  0  0  0
   -1.3449   -4.2494  -17.5227 C   0  0  0  0  0  0  0  0  0  0  0  0
   -0.7059   -4.3314  -18.7777 C   0  0  0  0  0  0  0  0  0  0  0  0
    0.3523   -5.1916  -18.9177 C   0  0  0  0  0  0  0  0  0  0  0  0
    0.7816   -5.9655  -17.8390 C   0  0  0  0  0  0  0  0  0  0  0  0
    0.1290   -5.8554  -16.6285 C   0  0  0  0  0  0  0  0  0  0  0  0
    0.5238   -6.6044  -15.5386 C   0  0  0  0  0  0  0  0  0  0  0  0
    1.5006   -7.3856  -15.7043 O   0  0  0  0  0  0  0  0  0  0  0  0
   -0.1228   -6.4874  -14.3615 N   0  0  0  0  0  0  0  0  0  0  0  0
    1.8364   -6.8125  -18.0069 F   0  0  0  0  0  0  0  0  0  0  0  0
   -1.1476   -3.5707  -19.7914 O   0  0  0  0  0  0  0  0  0  0  0  0
   -0.6109   -2.9202  -20.8515 C   0  0  0  0  0  0  0  0  0  0  0  0
   -1.5578   -2.2240  -21.7967 C   0  0  0  0  0  0  0  0  0  0  0  0
   -1.6398   -0.6928  -21.6719 C   0  0  0  0  0  0  0  0  0  0  0  0
   -0.9760   -1.3274  -22.8157 C   0  0  0  0  0  0  0  0  0  0  0  0
  1  2  1  0
  2  3  1  0
  3  4  1  0
  4  5  1  0
  5  6  1  0
  6  7  1  0
  5  8  1  0
  8  9  1  0
  9 10  1  0
 10 11  2  0
 11 12  1  0
 12 13  2  0
 13 14  1  0
 14 15  2  0
 15 16  1  0
 16 17  2  0
 17 18  1  0
 18 19  2  0
 18 20  1  0
 16 21  1  0
 14 22  1  0
 22 23  1  0
 23 24  1  0
 24 25  1  0
 25 26  1  0
  7  2  1  0
 20 10  1  0
 17 12  1  0
 26 24  1  0
M  END
$$$$
