
     RDKit          3D

 26 29  0  0  0  0  0  0  0  0999 V2000
   -3.3163   -9.2852   -8.6618 O   0  0  0  0  0  0  0  0  0  0  0  0
   -3.1220   -8.6507   -9.9139 C   0  0  0  0  0  0  0  0  0  0  0  0
   -3.2976   -9.6976  -10.9535 C   0  0  0  0  0  0  0  0  0  0  0  0
   -3.8909   -9.2577  -12.2441 C   0  0  0  0  0  0  0  0  0  0  0  0
   -3.6932   -7.7770  -12.4142 C   0  0  0  0  0  0  0  0  0  0  0  0
   -4.5006   -7.0936  -11.3326 C   0  0  0  0  0  0  0  0  0  0  0  0
   -4.0691   -7.5059   -9.9554 C   0  0  0  0  0  0  0  0  0  0  0  0
   -1.9564   -7.3219  -12.2044 S   0  0  0  0  0  0  0  0  0  0  0  0
   -1.6342   -5.6371  -12.7675 C   0  0  0  0  0  0  0  0  0  0  0  0
   -0.9699   -5.7212  -14.1021 C   0  0  0  0  0  0  0  0  0  0  0  0
   -1.2915   -4.8930  -15.1106 N   0  0  0  0  0  0  0  0  0  0  0  0
   -0.6898   -4.9653  -16.3221 C   0  0  0  0  0  0  0  0  0  0  0  0
   -1.0223   -4.1163  -17.3517 C   0  0  0  0  0  0  0  0  0  0  0  0
   -0.3983   -4.1889  -18.6147 C   0  0  0  0  0  0  0  0  0  0  0  0
    0.5695   -5.1394  -18.8123 C   0  0  0  0  0  0  0  0  0  0  0  0
    0.9237   -6.0122  -17.7828 C   0  0  0  0  0  0  0  0  0  0  0  0
    0.2888   -5.9078  -16.5625 C   0  0  0  0  0  0  0  0  0  0  0  0
    0.6111   -6.7530  -15.5201 C   0  0  0  0  0  0  0  0  0  0  0  0
    1.5057   -7.6156  -15.7381 O   0  0  0  0  0  0  0  0  0  0  0  0
   -0.0172   -6.6404  -14.3327 N   0  0  0  0  0  0  0  0  0  0  0  0
    1.8894   -6.9477  -18.0075 F   0  0  0  0  0  0  0  0  0  0  0  0
   -0.7659   -3.3318  -19.5800 O   0  0  0  0  0  0  0  0  0  0  0  0
   -0.5821   -3.2028  -20.9159 C   0  0  0  0  0  0  0  0  0  0  0  0
   -1.1489   -1.9752  -21.5840 C   0  0  0  0  0  0  0  0  0  0  0  0
   -1.8281   -2.1949  -22.9468 C   0  0  0  0  0  0  0  0  0  0  0  0
   -2.6145   -1.8954  -21.7454 C   0  0  0  0  0  0  0  0  0  0  0  0
  1  2  1  0
  2  3  1  0
  3  4  1  0
  4  5  1  0
  5  6  1  0
  6  7  1  0
  5  8  1  0
  8  9  1  0
  9 10  1  0
 10 11  2  0
 11 12  1  0
 12 13  2  0
 13 14  1  0
 14 15  2  0
 15 16  1  0
 16 17  2  0
 17 18  1  0
 18 19  2  0
 18 20  1  0
 16 21  1  0
 14 22  1  0
 22 23  1  0
 23 24  1  0
 24 25  1  0
 25 26  1  0
  7  2  1  0
 20 10  1  0
 17 12  1  0
 26 24  1  0
M  END
$$$$
