
     RDKit          3D

 26 29  0  0  0  0  0  0  0  0999 V2000
   -3.5846   -9.4971   -8.9505 O   0  0  0  0  0  0  0  0  0  0  0  0
   -3.4141   -8.7584  -10.1478 C   0  0  0  0  0  0  0  0  0  0  0  0
   -4.0019   -9.5765  -11.2401 C   0  0  0  0  0  0  0  0  0  0  0  0
   -4.6398   -8.8309  -12.3574 C   0  0  0  0  0  0  0  0  0  0  0  0
   -4.0921   -7.4318  -12.4110 C   0  0  0  0  0  0  0  0  0  0  0  0
   -4.5313   -6.7336  -11.1428 C   0  0  0  0  0  0  0  0  0  0  0  0
   -4.0285   -7.4260   -9.9096 C   0  0  0  0  0  0  0  0  0  0  0  0
   -2.2852   -7.4396  -12.4623 S   0  0  0  0  0  0  0  0  0  0  0  0
   -1.6196   -5.8002  -12.8213 C   0  0  0  0  0  0  0  0  0  0  0  0
   -1.0138   -5.8423  -14.1853 C   0  0  0  0  0  0  0  0  0  0  0  0
   -1.3830   -4.9876  -15.1547 N   0  0  0  0  0  0  0  0  0  0  0  0
   -0.8344   -5.0218  -16.3928 C   0  0  0  0  0  0  0  0  0  0  0  0
   -1.2155   -4.1457  -17.3821 C   0  0  0  0  0  0  0  0  0  0  0  0
   -0.6469   -4.1786  -18.6727 C   0  0  0  0  0  0  0  0  0  0  0  0
    0.3158   -5.1174  -18.9394 C   0  0  0  0  0  0  0  0  0  0  0  0
    0.7187   -6.0170  -17.9518 C   0  0  0  0  0  0  0  0  0  0  0  0
    0.1372   -5.9512  -16.7025 C   0  0  0  0  0  0  0  0  0  0  0  0
    0.5086   -6.8238  -15.6999 C   0  0  0  0  0  0  0  0  0  0  0  0
    1.3969   -7.6745  -15.9813 O   0  0  0  0  0  0  0  0  0  0  0  0
   -0.0678   -6.7489  -14.4835 N   0  0  0  0  0  0  0  0  0  0  0  0
    1.6781   -6.9400  -18.2450 F   0  0  0  0  0  0  0  0  0  0  0  0
   -1.0603   -3.2965  -19.5960 O   0  0  0  0  0  0  0  0  0  0  0  0
   -0.6735   -2.8980  -20.8316 C   0  0  0  0  0  0  0  0  0  0  0  0
   -1.4679   -1.7992  -21.4920 C   0  0  0  0  0  0  0  0  0  0  0  0
   -1.7917   -1.9961  -22.9832 C   0  0  0  0  0  0  0  0  0  0  0  0
   -2.8320   -2.1215  -21.9567 C   0  0  0  0  0  0  0  0  0  0  0  0
  1  2  1  0
  2  3  1  0
  3  4  1  0
  4  5  1  0
  5  6  1  0
  6  7  1  0
  5  8  1  0
  8  9  1  0
  9 10  1  0
 10 11  2  0
 11 12  1  0
 12 13  2  0
 13 14  1  0
 14 15  2  0
 15 16  1  0
 16 17  2  0
 17 18  1  0
 18 19  2  0
 18 20  1  0
 16 21  1  0
 14 22  1  0
 22 23  1  0
 23 24  1  0
 24 25  1  0
 25 26  1  0
  7  2  1  0
 20 10  1  0
 17 12  1  0
 26 24  1  0
M  END
$$$$
