
     RDKit          3D

 26 29  0  0  0  0  0  0  0  0999 V2000
  -12.5097   29.6248   -6.5378 O   0  0  0  0  0  0  0  0  0  0  0  0
  -11.6536   29.0612   -7.5164 C   0  0  0  0  0  0  0  0  0  0  0  0
  -12.2979   27.8019   -7.9712 C   0  0  0  0  0  0  0  0  0  0  0  0
  -12.0932   27.4292   -9.3961 C   0  0  0  0  0  0  0  0  0  0  0  0
  -10.8602   28.1076   -9.9252 C   0  0  0  0  0  0  0  0  0  0  0  0
  -11.1350   29.5952   -9.9213 C   0  0  0  0  0  0  0  0  0  0  0  0
  -11.4453   30.1121   -8.5467 C   0  0  0  0  0  0  0  0  0  0  0  0
   -9.4325   27.7876   -8.8636 S   0  0  0  0  0  0  0  0  0  0  0  0
   -9.0346   26.0280   -8.7911 C   0  0  0  0  0  0  0  0  0  0  0  0
   -7.6182   25.8988   -8.3368 C   0  0  0  0  0  0  0  0  0  0  0  0
   -7.2643   25.0755   -7.3350 N   0  0  0  0  0  0  0  0  0  0  0  0
   -5.9801   24.9545   -6.9214 C   0  0  0  0  0  0  0  0  0  0  0  0
   -5.6223   24.1114   -5.8955 C   0  0  0  0  0  0  0  0  0  0  0  0
   -4.2862   23.9831   -5.4616 C   0  0  0  0  0  0  0  0  0  0  0  0
   -3.3206   24.7267   -6.0892 C   0  0  0  0  0  0  0  0  0  0  0  0
   -3.6594   25.5892   -7.1325 C   0  0  0  0  0  0  0  0  0  0  0  0
   -4.9781   25.6853   -7.5261 C   0  0  0  0  0  0  0  0  0  0  0  0
   -5.3526   26.5274   -8.5534 C   0  0  0  0  0  0  0  0  0  0  0  0
   -4.4377   27.1967   -9.1074 O   0  0  0  0  0  0  0  0  0  0  0  0
   -6.6449   26.6121   -8.9280 N   0  0  0  0  0  0  0  0  0  0  0  0
   -2.6786   26.3166   -7.7384 F   0  0  0  0  0  0  0  0  0  0  0  0
   -3.9995   23.1428   -4.4550 O   0  0  0  0  0  0  0  0  0  0  0  0
   -2.8971   22.7516   -3.7718 C   0  0  0  0  0  0  0  0  0  0  0  0
   -2.6199   23.4221   -2.4496 C   0  0  0  0  0  0  0  0  0  0  0  0
   -1.9755   24.8175   -2.5166 C   0  0  0  0  0  0  0  0  0  0  0  0
   -3.3795   24.6468   -2.1276 C   0  0  0  0  0  0  0  0  0  0  0  0
  1  2  1  0
  2  3  1  0
  3  4  1  0
  4  5  1  0
  5  6  1  0
  6  7  1  0
  5  8  1  0
  8  9  1  0
  9 10  1  0
 10 11  2  0
 11 12  1  0
 12 13  2  0
 13 14  1  0
 14 15  2  0
 15 16  1  0
 16 17  2  0
 17 18  1  0
 18 19  2  0
 18 20  1  0
 16 21  1  0
 14 22  1  0
 22 23  1  0
 23 24  1  0
 24 25  1  0
 25 26  1  0
  7  2  1  0
 20 10  1  0
 17 12  1  0
 26 24  1  0
M  END
$$$$
