
     RDKit          3D

 26 29  0  0  0  0  0  0  0  0999 V2000
   -2.9668   -8.8925   -8.7227 O   0  0  0  0  0  0  0  0  0  0  0  0
   -2.9377   -8.3022  -10.0107 C   0  0  0  0  0  0  0  0  0  0  0  0
   -3.6148   -9.2529  -10.9302 C   0  0  0  0  0  0  0  0  0  0  0  0
   -4.3815   -8.6552  -12.0554 C   0  0  0  0  0  0  0  0  0  0  0  0
   -3.8756   -7.2667  -12.3323 C   0  0  0  0  0  0  0  0  0  0  0  0
   -4.1989   -6.4253  -11.1173 C   0  0  0  0  0  0  0  0  0  0  0  0
   -3.5559   -6.9578   -9.8699 C   0  0  0  0  0  0  0  0  0  0  0  0
   -2.0838   -7.2604  -12.5712 S   0  0  0  0  0  0  0  0  0  0  0  0
   -1.4885   -5.6468  -13.1203 C   0  0  0  0  0  0  0  0  0  0  0  0
   -0.8676   -5.8235  -14.4667 C   0  0  0  0  0  0  0  0  0  0  0  0
   -1.2548   -5.0981  -15.5298 N   0  0  0  0  0  0  0  0  0  0  0  0
   -0.6926   -5.2545  -16.7523 C   0  0  0  0  0  0  0  0  0  0  0  0
   -1.0923   -4.5105  -17.8377 C   0  0  0  0  0  0  0  0  0  0  0  0
   -0.5096   -4.6710  -19.1123 C   0  0  0  0  0  0  0  0  0  0  0  0
    0.4864   -5.6007  -19.2638 C   0  0  0  0  0  0  0  0  0  0  0  0
    0.9086   -6.3675  -18.1771 C   0  0  0  0  0  0  0  0  0  0  0  0
    0.3124   -6.1795  -16.9474 C   0  0  0  0  0  0  0  0  0  0  0  0
    0.7021   -6.9189  -15.8492 C   0  0  0  0  0  0  0  0  0  0  0  0
    1.6209   -7.7654  -16.0257 O   0  0  0  0  0  0  0  0  0  0  0  0
    0.1110   -6.7254  -14.6531 N   0  0  0  0  0  0  0  0  0  0  0  0
    1.9010   -7.2847  -18.3567 F   0  0  0  0  0  0  0  0  0  0  0  0
   -0.9425   -3.9146  -20.1331 O   0  0  0  0  0  0  0  0  0  0  0  0
   -1.7794   -2.8633  -20.3046 C   0  0  0  0  0  0  0  0  0  0  0  0
   -1.8959   -2.2818  -21.6913 C   0  0  0  0  0  0  0  0  0  0  0  0
   -1.5344   -0.7934  -21.8371 C   0  0  0  0  0  0  0  0  0  0  0  0
   -0.6540   -1.8440  -22.3594 C   0  0  0  0  0  0  0  0  0  0  0  0
  1  2  1  0
  2  3  1  0
  3  4  1  0
  4  5  1  0
  5  6  1  0
  6  7  1  0
  5  8  1  0
  8  9  1  0
  9 10  1  0
 10 11  2  0
 11 12  1  0
 12 13  2  0
 13 14  1  0
 14 15  2  0
 15 16  1  0
 16 17  2  0
 17 18  1  0
 18 19  2  0
 18 20  1  0
 16 21  1  0
 14 22  1  0
 22 23  1  0
 23 24  1  0
 24 25  1  0
 25 26  1  0
  7  2  1  0
 20 10  1  0
 17 12  1  0
 26 24  1  0
M  END
$$$$
