
     RDKit          3D

 26 29  0  0  0  0  0  0  0  0999 V2000
   -5.7540   -8.5060   -9.6479 O   0  0  0  0  0  0  0  0  0  0  0  0
   -4.6591   -8.2458  -10.5091 C   0  0  0  0  0  0  0  0  0  0  0  0
   -3.6251   -7.5632   -9.6888 C   0  0  0  0  0  0  0  0  0  0  0  0
   -2.2078   -7.8457  -10.0388 C   0  0  0  0  0  0  0  0  0  0  0  0
   -2.1234   -8.3284  -11.4603 C   0  0  0  0  0  0  0  0  0  0  0  0
   -2.8386   -9.6601  -11.5208 C   0  0  0  0  0  0  0  0  0  0  0  0
   -4.2779   -9.5512  -11.1090 C   0  0  0  0  0  0  0  0  0  0  0  0
   -2.9507   -7.1838  -12.5886 S   0  0  0  0  0  0  0  0  0  0  0  0
   -2.0274   -5.6433  -12.7736 C   0  0  0  0  0  0  0  0  0  0  0  0
   -1.3061   -5.6977  -14.0797 C   0  0  0  0  0  0  0  0  0  0  0  0
   -1.5982   -4.8602  -15.0896 N   0  0  0  0  0  0  0  0  0  0  0  0
   -0.9446   -4.9056  -16.2753 C   0  0  0  0  0  0  0  0  0  0  0  0
   -1.2471   -4.0472  -17.3063 C   0  0  0  0  0  0  0  0  0  0  0  0
   -0.5692   -4.0918  -18.5426 C   0  0  0  0  0  0  0  0  0  0  0  0
    0.4215   -5.0240  -18.7119 C   0  0  0  0  0  0  0  0  0  0  0  0
    0.7460   -5.9058  -17.6803 C   0  0  0  0  0  0  0  0  0  0  0  0
    0.0584   -5.8291  -16.4868 C   0  0  0  0  0  0  0  0  0  0  0  0
    0.3501   -6.6840  -15.4434 C   0  0  0  0  0  0  0  0  0  0  0  0
    1.2671   -7.5292  -15.6350 O   0  0  0  0  0  0  0  0  0  0  0  0
   -0.3296   -6.5984  -14.2823 N   0  0  0  0  0  0  0  0  0  0  0  0
    1.7355   -6.8228  -17.8765 F   0  0  0  0  0  0  0  0  0  0  0  0
   -0.9096   -3.2267  -19.5107 O   0  0  0  0  0  0  0  0  0  0  0  0
   -0.4330   -2.8559  -20.7233 C   0  0  0  0  0  0  0  0  0  0  0  0
   -1.1890   -1.7891  -21.4750 C   0  0  0  0  0  0  0  0  0  0  0  0
   -1.0939   -1.8416  -23.0097 C   0  0  0  0  0  0  0  0  0  0  0  0
   -2.3288   -2.2149  -22.3116 C   0  0  0  0  0  0  0  0  0  0  0  0
  1  2  1  0
  2  3  1  0
  3  4  1  0
  4  5  1  0
  5  6  1  0
  6  7  1  0
  5  8  1  0
  8  9  1  0
  9 10  1  0
 10 11  2  0
 11 12  1  0
 12 13  2  0
 13 14  1  0
 14 15  2  0
 15 16  1  0
 16 17  2  0
 17 18  1  0
 18 19  2  0
 18 20  1  0
 16 21  1  0
 14 22  1  0
 22 23  1  0
 23 24  1  0
 24 25  1  0
 25 26  1  0
  7  2  1  0
 20 10  1  0
 17 12  1  0
 26 24  1  0
M  END
$$$$
