
     RDKit          3D

 26 29  0  0  0  0  0  0  0  0999 V2000
   -3.4885   -9.3727   -8.8147 O   0  0  0  0  0  0  0  0  0  0  0  0
   -3.2704   -8.6970  -10.0411 C   0  0  0  0  0  0  0  0  0  0  0  0
   -3.6126   -9.6567  -11.1227 C   0  0  0  0  0  0  0  0  0  0  0  0
   -4.2007   -9.0792  -12.3603 C   0  0  0  0  0  0  0  0  0  0  0  0
   -3.8338   -7.6249  -12.4649 C   0  0  0  0  0  0  0  0  0  0  0  0
   -4.5087   -6.9123  -11.3137 C   0  0  0  0  0  0  0  0  0  0  0  0
   -4.0742   -7.4482   -9.9806 C   0  0  0  0  0  0  0  0  0  0  0  0
   -2.0479   -7.3898  -12.3143 S   0  0  0  0  0  0  0  0  0  0  0  0
   -1.5579   -5.7039  -12.7354 C   0  0  0  0  0  0  0  0  0  0  0  0
   -0.9310   -5.7359  -14.0902 C   0  0  0  0  0  0  0  0  0  0  0  0
   -1.3050   -4.8925  -15.0676 N   0  0  0  0  0  0  0  0  0  0  0  0
   -0.7373   -4.9175  -16.2973 C   0  0  0  0  0  0  0  0  0  0  0  0
   -1.1234   -4.0530  -17.2948 C   0  0  0  0  0  0  0  0  0  0  0  0
   -0.5350   -4.0764  -18.5767 C   0  0  0  0  0  0  0  0  0  0  0  0
    0.4527   -4.9938  -18.8262 C   0  0  0  0  0  0  0  0  0  0  0  0
    0.8610   -5.8813  -17.8300 C   0  0  0  0  0  0  0  0  0  0  0  0
    0.2596   -5.8254  -16.5897 C   0  0  0  0  0  0  0  0  0  0  0  0
    0.6358   -6.6867  -15.5790 C   0  0  0  0  0  0  0  0  0  0  0  0
    1.5472   -7.5177  -15.8446 O   0  0  0  0  0  0  0  0  0  0  0  0
    0.0397   -6.6215  -14.3715 N   0  0  0  0  0  0  0  0  0  0  0  0
    1.8454   -6.7831  -18.1061 F   0  0  0  0  0  0  0  0  0  0  0  0
   -0.9545   -3.2065  -19.5087 O   0  0  0  0  0  0  0  0  0  0  0  0
   -0.5141   -2.7412  -20.7023 C   0  0  0  0  0  0  0  0  0  0  0  0
   -1.3420   -1.6839  -21.3888 C   0  0  0  0  0  0  0  0  0  0  0  0
   -1.4494   -1.7919  -22.9197 C   0  0  0  0  0  0  0  0  0  0  0  0
   -2.5892   -2.1119  -22.0536 C   0  0  0  0  0  0  0  0  0  0  0  0
  1  2  1  0
  2  3  1  0
  3  4  1  0
  4  5  1  0
  5  6  1  0
  6  7  1  0
  5  8  1  0
  8  9  1  0
  9 10  1  0
 10 11  2  0
 11 12  1  0
 12 13  2  0
 13 14  1  0
 14 15  2  0
 15 16  1  0
 16 17  2  0
 17 18  1  0
 18 19  2  0
 18 20  1  0
 16 21  1  0
 14 22  1  0
 22 23  1  0
 23 24  1  0
 24 25  1  0
 25 26  1  0
  7  2  1  0
 20 10  1  0
 17 12  1  0
 26 24  1  0
M  END
$$$$
