
     RDKit          3D

 26 29  0  0  0  0  0  0  0  0999 V2000
   -3.2461   -9.4279   -8.7435 O   0  0  0  0  0  0  0  0  0  0  0  0
   -3.1626   -8.7329   -9.9757 C   0  0  0  0  0  0  0  0  0  0  0  0
   -3.7846   -9.6093  -11.0018 C   0  0  0  0  0  0  0  0  0  0  0  0
   -4.5036   -8.9262  -12.1097 C   0  0  0  0  0  0  0  0  0  0  0  0
   -4.0009   -7.5159  -12.2468 C   0  0  0  0  0  0  0  0  0  0  0  0
   -4.3910   -6.7802  -10.9837 C   0  0  0  0  0  0  0  0  0  0  0  0
   -3.8019   -7.4093   -9.7548 C   0  0  0  0  0  0  0  0  0  0  0  0
   -2.2000   -7.4766  -12.3976 S   0  0  0  0  0  0  0  0  0  0  0  0
   -1.5955   -5.8139  -12.7575 C   0  0  0  0  0  0  0  0  0  0  0  0
   -0.9766   -5.8375  -14.1161 C   0  0  0  0  0  0  0  0  0  0  0  0
   -1.3635   -4.9949  -15.0892 N   0  0  0  0  0  0  0  0  0  0  0  0
   -0.8030   -5.0123  -16.3223 C   0  0  0  0  0  0  0  0  0  0  0  0
   -1.2023   -4.1487  -17.3155 C   0  0  0  0  0  0  0  0  0  0  0  0
   -0.6215   -4.1642  -18.6009 C   0  0  0  0  0  0  0  0  0  0  0  0
    0.3722   -5.0727  -18.8586 C   0  0  0  0  0  0  0  0  0  0  0  0
    0.7940   -5.9592  -17.8669 C   0  0  0  0  0  0  0  0  0  0  0  0
    0.1996   -5.9112  -16.6229 C   0  0  0  0  0  0  0  0  0  0  0  0
    0.5890   -6.7716  -15.6166 C   0  0  0  0  0  0  0  0  0  0  0  0
    1.5057   -7.5944  -15.8896 O   0  0  0  0  0  0  0  0  0  0  0  0
   -0.0003   -6.7143  -14.4054 N   0  0  0  0  0  0  0  0  0  0  0  0
    1.7841   -6.8520  -18.1512 F   0  0  0  0  0  0  0  0  0  0  0  0
   -1.0539   -3.2956  -19.5283 O   0  0  0  0  0  0  0  0  0  0  0  0
   -0.6886   -2.9105  -20.7747 C   0  0  0  0  0  0  0  0  0  0  0  0
   -1.5263   -1.8562  -21.4539 C   0  0  0  0  0  0  0  0  0  0  0  0
   -2.0128   -2.1860  -22.8757 C   0  0  0  0  0  0  0  0  0  0  0  0
   -2.9390   -2.1788  -21.7382 C   0  0  0  0  0  0  0  0  0  0  0  0
  1  2  1  0
  2  3  1  0
  3  4  1  0
  4  5  1  0
  5  6  1  0
  6  7  1  0
  5  8  1  0
  8  9  1  0
  9 10  1  0
 10 11  2  0
 11 12  1  0
 12 13  2  0
 13 14  1  0
 14 15  2  0
 15 16  1  0
 16 17  2  0
 17 18  1  0
 18 19  2  0
 18 20  1  0
 16 21  1  0
 14 22  1  0
 22 23  1  0
 23 24  1  0
 24 25  1  0
 25 26  1  0
  7  2  1  0
 20 10  1  0
 17 12  1  0
 26 24  1  0
M  END
$$$$
