
     RDKit          3D

 26 29  0  0  0  0  0  0  0  0999 V2000
   -2.3166   -3.3031   -8.2245 O   0  0  0  0  0  0  0  0  0  0  0  0
   -2.0476   -3.6429   -9.5737 C   0  0  0  0  0  0  0  0  0  0  0  0
   -1.7076   -2.3762  -10.2721 C   0  0  0  0  0  0  0  0  0  0  0  0
   -0.7068   -2.4709  -11.3678 C   0  0  0  0  0  0  0  0  0  0  0  0
   -0.6531   -3.8818  -11.8845 C   0  0  0  0  0  0  0  0  0  0  0  0
   -0.1220   -4.7463  -10.7623 C   0  0  0  0  0  0  0  0  0  0  0  0
   -0.9918   -4.6886   -9.5403 C   0  0  0  0  0  0  0  0  0  0  0  0
   -2.3004   -4.4760  -12.3328 S   0  0  0  0  0  0  0  0  0  0  0  0
   -2.2355   -6.1066  -13.1051 C   0  0  0  0  0  0  0  0  0  0  0  0
   -1.4304   -5.9870  -14.3568 C   0  0  0  0  0  0  0  0  0  0  0  0
   -1.7315   -5.0928  -15.3140 N   0  0  0  0  0  0  0  0  0  0  0  0
   -1.0023   -4.9804  -16.4501 C   0  0  0  0  0  0  0  0  0  0  0  0
   -1.3143   -4.0644  -17.4274 C   0  0  0  0  0  0  0  0  0  0  0  0
   -0.5577   -3.9448  -18.6120 C   0  0  0  0  0  0  0  0  0  0  0  0
    0.5214   -4.7723  -18.7852 C   0  0  0  0  0  0  0  0  0  0  0  0
    0.8573   -5.7097  -17.8076 C   0  0  0  0  0  0  0  0  0  0  0  0
    0.0910   -5.7945  -16.6636 C   0  0  0  0  0  0  0  0  0  0  0  0
    0.3911   -6.7090  -15.6745 C   0  0  0  0  0  0  0  0  0  0  0  0
    1.3905   -7.4544  -15.8680 O   0  0  0  0  0  0  0  0  0  0  0  0
   -0.3662   -6.7816  -14.5614 N   0  0  0  0  0  0  0  0  0  0  0  0
    1.9355   -6.5198  -18.0064 F   0  0  0  0  0  0  0  0  0  0  0  0
   -0.9120   -3.0309  -19.5290 O   0  0  0  0  0  0  0  0  0  0  0  0
   -0.4553   -2.6004  -20.7295 C   0  0  0  0  0  0  0  0  0  0  0  0
   -1.2438   -1.5235  -21.4318 C   0  0  0  0  0  0  0  0  0  0  0  0
   -1.1440   -1.4991  -22.9669 C   0  0  0  0  0  0  0  0  0  0  0  0
   -2.3677   -1.9449  -22.2919 C   0  0  0  0  0  0  0  0  0  0  0  0
  1  2  1  0
  2  3  1  0
  3  4  1  0
  4  5  1  0
  5  6  1  0
  6  7  1  0
  5  8  1  0
  8  9  1  0
  9 10  1  0
 10 11  2  0
 11 12  1  0
 12 13  2  0
 13 14  1  0
 14 15  2  0
 15 16  1  0
 16 17  2  0
 17 18  1  0
 18 19  2  0
 18 20  1  0
 16 21  1  0
 14 22  1  0
 22 23  1  0
 23 24  1  0
 24 25  1  0
 25 26  1  0
  7  2  1  0
 20 10  1  0
 17 12  1  0
 26 24  1  0
M  END
$$$$
