
     RDKit          3D

 26 29  0  0  0  0  0  0  0  0999 V2000
   -3.1831   -9.7184   -9.1023 O   0  0  0  0  0  0  0  0  0  0  0  0
   -3.1544   -8.8546  -10.2254 C   0  0  0  0  0  0  0  0  0  0  0  0
   -4.1558   -9.3778  -11.1905 C   0  0  0  0  0  0  0  0  0  0  0  0
   -4.8695   -8.3692  -12.0177 C   0  0  0  0  0  0  0  0  0  0  0  0
   -4.0601   -7.1039  -12.0844 C   0  0  0  0  0  0  0  0  0  0  0  0
   -4.0121   -6.5326  -10.6843 C   0  0  0  0  0  0  0  0  0  0  0  0
   -3.3859   -7.4818   -9.7046 C   0  0  0  0  0  0  0  0  0  0  0  0
   -2.3675   -7.4393  -12.6229 S   0  0  0  0  0  0  0  0  0  0  0  0
   -1.4069   -5.9202  -12.7933 C   0  0  0  0  0  0  0  0  0  0  0  0
   -0.7960   -5.9170  -14.1558 C   0  0  0  0  0  0  0  0  0  0  0  0
   -1.1734   -5.0412  -15.1029 N   0  0  0  0  0  0  0  0  0  0  0  0
   -0.6202   -5.0343  -16.3394 C   0  0  0  0  0  0  0  0  0  0  0  0
   -1.0098   -4.1368  -17.3059 C   0  0  0  0  0  0  0  0  0  0  0  0
   -0.4364   -4.1269  -18.5948 C   0  0  0  0  0  0  0  0  0  0  0  0
    0.5397   -5.0451  -18.8834 C   0  0  0  0  0  0  0  0  0  0  0  0
    0.9513   -5.9658  -17.9191 C   0  0  0  0  0  0  0  0  0  0  0  0
    0.3648   -5.9419  -16.6707 C   0  0  0  0  0  0  0  0  0  0  0  0
    0.7446   -6.8365  -15.6908 C   0  0  0  0  0  0  0  0  0  0  0  0
    1.6451   -7.6673  -15.9920 O   0  0  0  0  0  0  0  0  0  0  0  0
    0.1631   -6.8024  -14.4750 N   0  0  0  0  0  0  0  0  0  0  0  0
    1.9240   -6.8676  -18.2338 F   0  0  0  0  0  0  0  0  0  0  0  0
   -0.8586   -3.2255  -19.4953 O   0  0  0  0  0  0  0  0  0  0  0  0
   -0.4882   -2.8064  -20.7291 C   0  0  0  0  0  0  0  0  0  0  0  0
   -1.2883   -1.6935  -21.3585 C   0  0  0  0  0  0  0  0  0  0  0  0
   -1.8948   -1.9898  -22.7410 C   0  0  0  0  0  0  0  0  0  0  0  0
   -2.7375   -1.9086  -21.5431 C   0  0  0  0  0  0  0  0  0  0  0  0
  1  2  1  0
  2  3  1  0
  3  4  1  0
  4  5  1  0
  5  6  1  0
  6  7  1  0
  5  8  1  0
  8  9  1  0
  9 10  1  0
 10 11  2  0
 11 12  1  0
 12 13  2  0
 13 14  1  0
 14 15  2  0
 15 16  1  0
 16 17  2  0
 17 18  1  0
 18 19  2  0
 18 20  1  0
 16 21  1  0
 14 22  1  0
 22 23  1  0
 23 24  1  0
 24 25  1  0
 25 26  1  0
  7  2  1  0
 20 10  1  0
 17 12  1  0
 26 24  1  0
M  END
$$$$
