
     RDKit          3D

 26 29  0  0  0  0  0  0  0  0999 V2000
   -2.5754   -3.3465   -8.1781 O   0  0  0  0  0  0  0  0  0  0  0  0
   -2.1969   -3.7138   -9.4934 C   0  0  0  0  0  0  0  0  0  0  0  0
   -1.6160   -2.5001  -10.1238 C   0  0  0  0  0  0  0  0  0  0  0  0
   -0.5149   -2.7214  -11.0983 C   0  0  0  0  0  0  0  0  0  0  0  0
   -0.5848   -4.1253  -11.6319 C   0  0  0  0  0  0  0  0  0  0  0  0
   -0.3053   -5.0560  -10.4724 C   0  0  0  0  0  0  0  0  0  0  0  0
   -1.2971   -4.8891   -9.3581 C   0  0  0  0  0  0  0  0  0  0  0  0
   -2.2315   -4.4966  -12.2784 S   0  0  0  0  0  0  0  0  0  0  0  0
   -2.2738   -6.0918  -13.1230 C   0  0  0  0  0  0  0  0  0  0  0  0
   -1.4633   -5.9690  -14.3710 C   0  0  0  0  0  0  0  0  0  0  0  0
   -1.7767   -5.0916  -15.3398 N   0  0  0  0  0  0  0  0  0  0  0  0
   -1.0427   -4.9764  -16.4725 C   0  0  0  0  0  0  0  0  0  0  0  0
   -1.3672   -4.0776  -17.4616 C   0  0  0  0  0  0  0  0  0  0  0  0
   -0.6057   -3.9551  -18.6427 C   0  0  0  0  0  0  0  0  0  0  0  0
    0.4914   -4.7620  -18.8001 C   0  0  0  0  0  0  0  0  0  0  0  0
    0.8403   -5.6816  -17.8104 C   0  0  0  0  0  0  0  0  0  0  0  0
    0.0685   -5.7699  -16.6703 C   0  0  0  0  0  0  0  0  0  0  0  0
    0.3811   -6.6672  -15.6694 C   0  0  0  0  0  0  0  0  0  0  0  0
    1.3969   -7.3938  -15.8486 O   0  0  0  0  0  0  0  0  0  0  0  0
   -0.3816   -6.7435  -14.5603 N   0  0  0  0  0  0  0  0  0  0  0  0
    1.9362   -6.4713  -17.9936 F   0  0  0  0  0  0  0  0  0  0  0  0
   -0.9728   -3.0587  -19.5718 O   0  0  0  0  0  0  0  0  0  0  0  0
   -0.5008   -2.6101  -20.7597 C   0  0  0  0  0  0  0  0  0  0  0  0
   -1.3066   -1.5577  -21.4793 C   0  0  0  0  0  0  0  0  0  0  0  0
   -1.4671   -1.7445  -22.9980 C   0  0  0  0  0  0  0  0  0  0  0  0
   -2.5907   -1.9682  -22.0819 C   0  0  0  0  0  0  0  0  0  0  0  0
  1  2  1  0
  2  3  1  0
  3  4  1  0
  4  5  1  0
  5  6  1  0
  6  7  1  0
  5  8  1  0
  8  9  1  0
  9 10  1  0
 10 11  2  0
 11 12  1  0
 12 13  2  0
 13 14  1  0
 14 15  2  0
 15 16  1  0
 16 17  2  0
 17 18  1  0
 18 19  2  0
 18 20  1  0
 16 21  1  0
 14 22  1  0
 22 23  1  0
 23 24  1  0
 24 25  1  0
 25 26  1  0
  7  2  1  0
 20 10  1  0
 17 12  1  0
 26 24  1  0
M  END
$$$$
