
     RDKit          3D

 26 29  0  0  0  0  0  0  0  0999 V2000
   -2.5189   -3.1910   -8.0729 O   0  0  0  0  0  0  0  0  0  0  0  0
   -2.1285   -3.6239   -9.3645 C   0  0  0  0  0  0  0  0  0  0  0  0
   -1.3056   -2.5332   -9.9484 C   0  0  0  0  0  0  0  0  0  0  0  0
   -0.2010   -2.9477  -10.8536 C   0  0  0  0  0  0  0  0  0  0  0  0
   -0.4819   -4.3197  -11.4007 C   0  0  0  0  0  0  0  0  0  0  0  0
   -0.4433   -5.2805  -10.2328 C   0  0  0  0  0  0  0  0  0  0  0  0
   -1.4587   -4.9382   -9.1817 C   0  0  0  0  0  0  0  0  0  0  0  0
   -2.1242   -4.3992  -12.1519 S   0  0  0  0  0  0  0  0  0  0  0  0
   -2.3466   -5.9108  -13.1138 C   0  0  0  0  0  0  0  0  0  0  0  0
   -1.5281   -5.7856  -14.3563 C   0  0  0  0  0  0  0  0  0  0  0  0
   -1.8295   -4.8994  -15.3208 N   0  0  0  0  0  0  0  0  0  0  0  0
   -1.0882   -4.7820  -16.4486 C   0  0  0  0  0  0  0  0  0  0  0  0
   -1.4004   -3.8742  -17.4334 C   0  0  0  0  0  0  0  0  0  0  0  0
   -0.6312   -3.7494  -18.6093 C   0  0  0  0  0  0  0  0  0  0  0  0
    0.4607   -4.5633  -18.7660 C   0  0  0  0  0  0  0  0  0  0  0  0
    0.7971   -5.4921  -17.7805 C   0  0  0  0  0  0  0  0  0  0  0  0
    0.0183   -5.5824  -16.6455 C   0  0  0  0  0  0  0  0  0  0  0  0
    0.3185   -6.4888  -15.6489 C   0  0  0  0  0  0  0  0  0  0  0  0
    1.3299   -7.2216  -15.8272 O   0  0  0  0  0  0  0  0  0  0  0  0
   -0.4511   -6.5668  -14.5447 N   0  0  0  0  0  0  0  0  0  0  0  0
    1.8883   -6.2887  -17.9629 F   0  0  0  0  0  0  0  0  0  0  0  0
   -0.9864   -2.8441  -19.5343 O   0  0  0  0  0  0  0  0  0  0  0  0
   -0.4773   -2.3529  -20.6896 C   0  0  0  0  0  0  0  0  0  0  0  0
   -1.2961   -1.3284  -21.4343 C   0  0  0  0  0  0  0  0  0  0  0  0
   -1.1014   -1.2804  -22.9597 C   0  0  0  0  0  0  0  0  0  0  0  0
   -2.3296   -1.8208  -22.3671 C   0  0  0  0  0  0  0  0  0  0  0  0
  1  2  1  0
  2  3  1  0
  3  4  1  0
  4  5  1  0
  5  6  1  0
  6  7  1  0
  5  8  1  0
  8  9  1  0
  9 10  1  0
 10 11  2  0
 11 12  1  0
 12 13  2  0
 13 14  1  0
 14 15  2  0
 15 16  1  0
 16 17  2  0
 17 18  1  0
 18 19  2  0
 18 20  1  0
 16 21  1  0
 14 22  1  0
 22 23  1  0
 23 24  1  0
 24 25  1  0
 25 26  1  0
  7  2  1  0
 20 10  1  0
 17 12  1  0
 26 24  1  0
M  END
$$$$
