
     RDKit          3D

 26 29  0  0  0  0  0  0  0  0999 V2000
   -3.4990   -9.3268   -8.8411 O   0  0  0  0  0  0  0  0  0  0  0  0
   -3.3357   -8.6099  -10.0525 C   0  0  0  0  0  0  0  0  0  0  0  0
   -3.9626   -9.4307  -11.1208 C   0  0  0  0  0  0  0  0  0  0  0  0
   -4.6056   -8.6878  -12.2369 C   0  0  0  0  0  0  0  0  0  0  0  0
   -4.0283   -7.3021  -12.3222 C   0  0  0  0  0  0  0  0  0  0  0  0
   -4.4273   -6.5756  -11.0566 C   0  0  0  0  0  0  0  0  0  0  0  0
   -3.9158   -7.2608   -9.8229 C   0  0  0  0  0  0  0  0  0  0  0  0
   -2.2234   -7.3510  -12.4081 S   0  0  0  0  0  0  0  0  0  0  0  0
   -1.5301   -5.7371  -12.8253 C   0  0  0  0  0  0  0  0  0  0  0  0
   -0.9082   -5.8435  -14.1785 C   0  0  0  0  0  0  0  0  0  0  0  0
   -1.2757   -5.0455  -15.1956 N   0  0  0  0  0  0  0  0  0  0  0  0
   -0.7125   -5.1381  -16.4241 C   0  0  0  0  0  0  0  0  0  0  0  0
   -1.0920   -4.3199  -17.4623 C   0  0  0  0  0  0  0  0  0  0  0  0
   -0.5082   -4.4138  -18.7430 C   0  0  0  0  0  0  0  0  0  0  0  0
    0.4681   -5.3538  -18.9494 C   0  0  0  0  0  0  0  0  0  0  0  0
    0.8697   -6.1953  -17.9113 C   0  0  0  0  0  0  0  0  0  0  0  0
    0.2730   -6.0709  -16.6737 C   0  0  0  0  0  0  0  0  0  0  0  0
    0.6427   -6.8852  -15.6225 C   0  0  0  0  0  0  0  0  0  0  0  0
    1.5437   -7.7389  -15.8489 O   0  0  0  0  0  0  0  0  0  0  0  0
    0.0514   -6.7532  -14.4181 N   0  0  0  0  0  0  0  0  0  0  0  0
    1.8427   -7.1210  -18.1450 F   0  0  0  0  0  0  0  0  0  0  0  0
   -0.9208   -3.5865  -19.7160 O   0  0  0  0  0  0  0  0  0  0  0  0
   -0.6876   -3.4160  -21.0395 C   0  0  0  0  0  0  0  0  0  0  0  0
   -1.3873   -2.2728  -21.7309 C   0  0  0  0  0  0  0  0  0  0  0  0
   -2.5306   -2.6538  -22.6874 C   0  0  0  0  0  0  0  0  0  0  0  0
   -2.8027   -2.0263  -21.3898 C   0  0  0  0  0  0  0  0  0  0  0  0
  1  2  1  0
  2  3  1  0
  3  4  1  0
  4  5  1  0
  5  6  1  0
  6  7  1  0
  5  8  1  0
  8  9  1  0
  9 10  1  0
 10 11  2  0
 11 12  1  0
 12 13  2  0
 13 14  1  0
 14 15  2  0
 15 16  1  0
 16 17  2  0
 17 18  1  0
 18 19  2  0
 18 20  1  0
 16 21  1  0
 14 22  1  0
 22 23  1  0
 23 24  1  0
 24 25  1  0
 25 26  1  0
  7  2  1  0
 20 10  1  0
 17 12  1  0
 26 24  1  0
M  END
$$$$
