
     RDKit          3D

 26 29  0  0  0  0  0  0  0  0999 V2000
   -3.5194   -8.9326   -8.6820 O   0  0  0  0  0  0  0  0  0  0  0  0
   -3.3051   -8.3333   -9.9481 C   0  0  0  0  0  0  0  0  0  0  0  0
   -3.5941   -9.3756  -10.9669 C   0  0  0  0  0  0  0  0  0  0  0  0
   -4.1816   -8.9048  -12.2492 C   0  0  0  0  0  0  0  0  0  0  0  0
   -3.8657   -7.4482  -12.4469 C   0  0  0  0  0  0  0  0  0  0  0  0
   -4.5852   -6.6853  -11.3565 C   0  0  0  0  0  0  0  0  0  0  0  0
   -4.1543   -7.1139   -9.9841 C   0  0  0  0  0  0  0  0  0  0  0  0
   -2.0922   -7.1373  -12.2868 S   0  0  0  0  0  0  0  0  0  0  0  0
   -1.6484   -5.4851  -12.8636 C   0  0  0  0  0  0  0  0  0  0  0  0
   -0.9960   -5.6279  -14.1991 C   0  0  0  0  0  0  0  0  0  0  0  0
   -1.3664   -4.8839  -15.2553 N   0  0  0  0  0  0  0  0  0  0  0  0
   -0.7756   -5.0096  -16.4679 C   0  0  0  0  0  0  0  0  0  0  0  0
   -1.1581   -4.2467  -17.5464 C   0  0  0  0  0  0  0  0  0  0  0  0
   -0.5456   -4.3751  -18.8106 C   0  0  0  0  0  0  0  0  0  0  0  0
    0.4624   -5.2923  -18.9588 C   0  0  0  0  0  0  0  0  0  0  0  0
    0.8675   -6.0779  -17.8791 C   0  0  0  0  0  0  0  0  0  0  0  0
    0.2422   -5.9211  -16.6595 C   0  0  0  0  0  0  0  0  0  0  0  0
    0.6145   -6.6798  -15.5683 C   0  0  0  0  0  0  0  0  0  0  0  0
    1.5450   -7.5140  -15.7417 O   0  0  0  0  0  0  0  0  0  0  0  0
   -0.0050   -6.5168  -14.3821 N   0  0  0  0  0  0  0  0  0  0  0  0
    1.8724   -6.9821  -18.0553 F   0  0  0  0  0  0  0  0  0  0  0  0
   -0.9628   -3.6015  -19.8250 O   0  0  0  0  0  0  0  0  0  0  0  0
   -0.7145   -3.4845  -21.1515 C   0  0  0  0  0  0  0  0  0  0  0  0
   -1.4132   -2.3759  -21.8982 C   0  0  0  0  0  0  0  0  0  0  0  0
   -2.8230   -2.6944  -22.4254 C   0  0  0  0  0  0  0  0  0  0  0  0
   -2.6236   -1.7919  -21.2864 C   0  0  0  0  0  0  0  0  0  0  0  0
  1  2  1  0
  2  3  1  0
  3  4  1  0
  4  5  1  0
  5  6  1  0
  6  7  1  0
  5  8  1  0
  8  9  1  0
  9 10  1  0
 10 11  2  0
 11 12  1  0
 12 13  2  0
 13 14  1  0
 14 15  2  0
 15 16  1  0
 16 17  2  0
 17 18  1  0
 18 19  2  0
 18 20  1  0
 16 21  1  0
 14 22  1  0
 22 23  1  0
 23 24  1  0
 24 25  1  0
 25 26  1  0
  7  2  1  0
 20 10  1  0
 17 12  1  0
 26 24  1  0
M  END
$$$$
