
     RDKit          3D

 26 29  0  0  0  0  0  0  0  0999 V2000
   -2.5631   -3.2301   -8.1630 O   0  0  0  0  0  0  0  0  0  0  0  0
   -2.1879   -3.6371   -9.4676 C   0  0  0  0  0  0  0  0  0  0  0  0
   -1.5098   -2.4749  -10.0977 C   0  0  0  0  0  0  0  0  0  0  0  0
   -0.4097   -2.7845  -11.0490 C   0  0  0  0  0  0  0  0  0  0  0  0
   -0.5706   -4.1853  -11.5712 C   0  0  0  0  0  0  0  0  0  0  0  0
   -0.3800   -5.1215  -10.3982 C   0  0  0  0  0  0  0  0  0  0  0  0
   -1.3775   -4.8725   -9.3046 C   0  0  0  0  0  0  0  0  0  0  0  0
   -2.2276   -4.4443  -12.2456 S   0  0  0  0  0  0  0  0  0  0  0  0
   -2.3543   -6.0182  -13.1210 C   0  0  0  0  0  0  0  0  0  0  0  0
   -1.5146   -5.9246  -14.3521 C   0  0  0  0  0  0  0  0  0  0  0  0
   -1.7975   -5.0615  -15.3427 N   0  0  0  0  0  0  0  0  0  0  0  0
   -1.0369   -4.9727  -16.4601 C   0  0  0  0  0  0  0  0  0  0  0  0
   -1.3304   -4.0885  -17.4718 C   0  0  0  0  0  0  0  0  0  0  0  0
   -0.5411   -3.9935  -18.6371 C   0  0  0  0  0  0  0  0  0  0  0  0
    0.5515   -4.8129  -18.7555 C   0  0  0  0  0  0  0  0  0  0  0  0
    0.8691   -5.7182  -17.7423 C   0  0  0  0  0  0  0  0  0  0  0  0
    0.0709   -5.7796  -16.6188 C   0  0  0  0  0  0  0  0  0  0  0  0
    0.3522   -6.6621  -15.5957 C   0  0  0  0  0  0  0  0  0  0  0  0
    1.3648   -7.4009  -15.7390 O   0  0  0  0  0  0  0  0  0  0  0  0
   -0.4363   -6.7121  -14.5032 N   0  0  0  0  0  0  0  0  0  0  0  0
    1.9614   -6.5209  -17.8867 F   0  0  0  0  0  0  0  0  0  0  0  0
   -0.8785   -3.1102  -19.5897 O   0  0  0  0  0  0  0  0  0  0  0  0
   -0.3637   -2.6701  -20.7629 C   0  0  0  0  0  0  0  0  0  0  0  0
   -1.1864   -1.6925  -21.5642 C   0  0  0  0  0  0  0  0  0  0  0  0
   -1.2010   -1.9046  -23.0879 C   0  0  0  0  0  0  0  0  0  0  0  0
   -2.3774   -2.2107  -22.2668 C   0  0  0  0  0  0  0  0  0  0  0  0
  1  2  1  0
  2  3  1  0
  3  4  1  0
  4  5  1  0
  5  6  1  0
  6  7  1  0
  5  8  1  0
  8  9  1  0
  9 10  1  0
 10 11  2  0
 11 12  1  0
 12 13  2  0
 13 14  1  0
 14 15  2  0
 15 16  1  0
 16 17  2  0
 17 18  1  0
 18 19  2  0
 18 20  1  0
 16 21  1  0
 14 22  1  0
 22 23  1  0
 23 24  1  0
 24 25  1  0
 25 26  1  0
  7  2  1  0
 20 10  1  0
 17 12  1  0
 26 24  1  0
M  END
$$$$
