
     RDKit          3D

 26 29  0  0  0  0  0  0  0  0999 V2000
   -3.5040   -8.9733   -8.9123 O   0  0  0  0  0  0  0  0  0  0  0  0
   -3.2359   -8.4226  -10.1902 C   0  0  0  0  0  0  0  0  0  0  0  0
   -3.2767   -9.5503  -11.1569 C   0  0  0  0  0  0  0  0  0  0  0  0
   -3.7806   -9.2372  -12.5204 C   0  0  0  0  0  0  0  0  0  0  0  0
   -3.6374   -7.7646  -12.7878 C   0  0  0  0  0  0  0  0  0  0  0  0
   -4.5621   -7.0469  -11.8293 C   0  0  0  0  0  0  0  0  0  0  0  0
   -4.2277   -7.3346  -10.3946 C   0  0  0  0  0  0  0  0  0  0  0  0
   -1.9466   -7.2060  -12.4768 S   0  0  0  0  0  0  0  0  0  0  0  0
   -1.6439   -5.5697  -13.1770 C   0  0  0  0  0  0  0  0  0  0  0  0
   -0.9513   -5.7548  -14.4868 C   0  0  0  0  0  0  0  0  0  0  0  0
   -1.2507   -5.0064  -15.5623 N   0  0  0  0  0  0  0  0  0  0  0  0
   -0.6232   -5.1705  -16.7516 C   0  0  0  0  0  0  0  0  0  0  0  0
   -0.9331   -4.4029  -17.8499 C   0  0  0  0  0  0  0  0  0  0  0  0
   -0.2822   -4.5712  -19.0901 C   0  0  0  0  0  0  0  0  0  0  0  0
    0.6890   -5.5331  -19.1937 C   0  0  0  0  0  0  0  0  0  0  0  0
    1.0205   -6.3242  -18.0931 C   0  0  0  0  0  0  0  0  0  0  0  0
    0.3597   -6.1276  -16.8982 C   0  0  0  0  0  0  0  0  0  0  0  0
    0.6591   -6.8903  -15.7877 C   0  0  0  0  0  0  0  0  0  0  0  0
    1.5576   -7.7661  -15.9200 O   0  0  0  0  0  0  0  0  0  0  0  0
    0.0056   -6.6880  -14.6260 N   0  0  0  0  0  0  0  0  0  0  0  0
    1.9903   -7.2732  -18.2249 F   0  0  0  0  0  0  0  0  0  0  0  0
   -0.6285   -3.7907  -20.1256 O   0  0  0  0  0  0  0  0  0  0  0  0
   -1.4559   -2.7405  -20.3442 C   0  0  0  0  0  0  0  0  0  0  0  0
   -1.5034   -2.1665  -21.7380 C   0  0  0  0  0  0  0  0  0  0  0  0
   -1.5046   -0.6315  -21.8417 C   0  0  0  0  0  0  0  0  0  0  0  0
   -0.3230   -1.4173  -22.2132 C   0  0  0  0  0  0  0  0  0  0  0  0
  1  2  1  0
  2  3  1  0
  3  4  1  0
  4  5  1  0
  5  6  1  0
  6  7  1  0
  5  8  1  0
  8  9  1  0
  9 10  1  0
 10 11  2  0
 11 12  1  0
 12 13  2  0
 13 14  1  0
 14 15  2  0
 15 16  1  0
 16 17  2  0
 17 18  1  0
 18 19  2  0
 18 20  1  0
 16 21  1  0
 14 22  1  0
 22 23  1  0
 23 24  1  0
 24 25  1  0
 25 26  1  0
  7  2  1  0
 20 10  1  0
 17 12  1  0
 26 24  1  0
M  END
$$$$
