
     RDKit          3D

 26 29  0  0  0  0  0  0  0  0999 V2000
    0.5998    0.2513  -22.6020 O   0  0  0  0  0  0  0  0  0  0  0  0
    0.4786   -1.0541  -22.0641 C   0  0  0  0  0  0  0  0  0  0  0  0
   -0.8727   -1.1388  -21.4522 C   0  0  0  0  0  0  0  0  0  0  0  0
   -1.5453   -2.4636  -21.5104 C   0  0  0  0  0  0  0  0  0  0  0  0
   -0.5178   -3.5461  -21.6919 C   0  0  0  0  0  0  0  0  0  0  0  0
    0.1096   -3.3397  -23.0530 C   0  0  0  0  0  0  0  0  0  0  0  0
    0.7648   -1.9951  -23.1786 C   0  0  0  0  0  0  0  0  0  0  0  0
    0.7813   -3.4295  -20.4404 S   0  0  0  0  0  0  0  0  0  0  0  0
    1.4547   -5.0518  -20.0230 C   0  0  0  0  0  0  0  0  0  0  0  0
    1.0607   -5.3613  -18.6164 C   0  0  0  0  0  0  0  0  0  0  0  0
    0.1288   -4.6452  -17.9644 N   0  0  0  0  0  0  0  0  0  0  0  0
   -0.2324   -4.9242  -16.6889 C   0  0  0  0  0  0  0  0  0  0  0  0
   -1.1861   -4.1885  -16.0251 C   0  0  0  0  0  0  0  0  0  0  0  0
   -1.5643   -4.4756  -14.6968 C   0  0  0  0  0  0  0  0  0  0  0  0
   -0.9562   -5.5236  -14.0556 C   0  0  0  0  0  0  0  0  0  0  0  0
    0.0144   -6.2843  -14.7085 C   0  0  0  0  0  0  0  0  0  0  0  0
    0.3556   -5.9701  -16.0077 C   0  0  0  0  0  0  0  0  0  0  0  0
    1.3112   -6.6986  -16.6866 C   0  0  0  0  0  0  0  0  0  0  0  0
    1.8501   -7.6553  -16.0653 O   0  0  0  0  0  0  0  0  0  0  0  0
    1.6355   -6.3807  -17.9560 N   0  0  0  0  0  0  0  0  0  0  0  0
    0.6027   -7.3207  -14.0466 F   0  0  0  0  0  0  0  0  0  0  0  0
   -2.5021   -3.7213  -14.1025 O   0  0  0  0  0  0  0  0  0  0  0  0
   -2.8862   -3.4295  -12.8366 C   0  0  0  0  0  0  0  0  0  0  0  0
   -3.8989   -2.3276  -12.6500 C   0  0  0  0  0  0  0  0  0  0  0  0
   -3.4701   -1.1550  -11.7510 C   0  0  0  0  0  0  0  0  0  0  0  0
   -3.5775   -0.9977  -13.2055 C   0  0  0  0  0  0  0  0  0  0  0  0
  1  2  1  0
  2  3  1  0
  3  4  1  0
  4  5  1  0
  5  6  1  0
  6  7  1  0
  5  8  1  0
  8  9  1  0
  9 10  1  0
 10 11  2  0
 11 12  1  0
 12 13  2  0
 13 14  1  0
 14 15  2  0
 15 16  1  0
 16 17  2  0
 17 18  1  0
 18 19  2  0
 18 20  1  0
 16 21  1  0
 14 22  1  0
 22 23  1  0
 23 24  1  0
 24 25  1  0
 25 26  1  0
  7  2  1  0
 20 10  1  0
 17 12  1  0
 26 24  1  0
M  END
$$$$
