
     RDKit          3D

 26 29  0  0  0  0  0  0  0  0999 V2000
    0.8448   -0.0743  -23.0530 O   0  0  0  0  0  0  0  0  0  0  0  0
    0.5495   -1.2553  -22.3275 C   0  0  0  0  0  0  0  0  0  0  0  0
   -0.8061   -1.0709  -21.7476 C   0  0  0  0  0  0  0  0  0  0  0  0
   -1.6459   -2.2917  -21.6235 C   0  0  0  0  0  0  0  0  0  0  0  0
   -0.7676   -3.5120  -21.6106 C   0  0  0  0  0  0  0  0  0  0  0  0
   -0.1079   -3.5992  -22.9693 C   0  0  0  0  0  0  0  0  0  0  0  0
    0.7187   -2.3850  -23.2784 C   0  0  0  0  0  0  0  0  0  0  0  0
    0.5257   -3.3722  -20.3555 S   0  0  0  0  0  0  0  0  0  0  0  0
    1.2699   -4.9740  -19.9814 C   0  0  0  0  0  0  0  0  0  0  0  0
    0.9133   -5.3255  -18.5747 C   0  0  0  0  0  0  0  0  0  0  0  0
    0.0031   -4.6264  -17.8753 N   0  0  0  0  0  0  0  0  0  0  0  0
   -0.3241   -4.9435  -16.5996 C   0  0  0  0  0  0  0  0  0  0  0  0
   -1.2556   -4.2250  -15.8871 C   0  0  0  0  0  0  0  0  0  0  0  0
   -1.5985   -4.5519  -14.5584 C   0  0  0  0  0  0  0  0  0  0  0  0
   -0.9780   -5.6217  -13.9671 C   0  0  0  0  0  0  0  0  0  0  0  0
   -0.0294   -6.3656  -14.6699 C   0  0  0  0  0  0  0  0  0  0  0  0
    0.2774   -6.0124  -15.9677 C   0  0  0  0  0  0  0  0  0  0  0  0
    1.2104   -6.7232  -16.6950 C   0  0  0  0  0  0  0  0  0  0  0  0
    1.7616   -7.7009  -16.1188 O   0  0  0  0  0  0  0  0  0  0  0  0
    1.5011   -6.3672  -17.9624 N   0  0  0  0  0  0  0  0  0  0  0  0
    0.5719   -7.4244  -14.0570 F   0  0  0  0  0  0  0  0  0  0  0  0
   -2.5159   -3.8127  -13.9153 O   0  0  0  0  0  0  0  0  0  0  0  0
   -2.9693   -3.6771  -12.6460 C   0  0  0  0  0  0  0  0  0  0  0  0
   -3.8844   -2.5151  -12.3512 C   0  0  0  0  0  0  0  0  0  0  0  0
   -3.2496   -1.3168  -11.6244 C   0  0  0  0  0  0  0  0  0  0  0  0
   -3.6175   -1.2377  -13.0422 C   0  0  0  0  0  0  0  0  0  0  0  0
  1  2  1  0
  2  3  1  0
  3  4  1  0
  4  5  1  0
  5  6  1  0
  6  7  1  0
  5  8  1  0
  8  9  1  0
  9 10  1  0
 10 11  2  0
 11 12  1  0
 12 13  2  0
 13 14  1  0
 14 15  2  0
 15 16  1  0
 16 17  2  0
 17 18  1  0
 18 19  2  0
 18 20  1  0
 16 21  1  0
 14 22  1  0
 22 23  1  0
 23 24  1  0
 24 25  1  0
 25 26  1  0
  7  2  1  0
 20 10  1  0
 17 12  1  0
 26 24  1  0
M  END
$$$$
