
     RDKit          3D

 26 29  0  0  0  0  0  0  0  0999 V2000
   -3.3838   -9.5337   -8.9567 O   0  0  0  0  0  0  0  0  0  0  0  0
   -3.2701   -8.6857  -10.0864 C   0  0  0  0  0  0  0  0  0  0  0  0
   -4.1091   -9.2861  -11.1556 C   0  0  0  0  0  0  0  0  0  0  0  0
   -4.7764   -8.3376  -12.0863 C   0  0  0  0  0  0  0  0  0  0  0  0
   -4.0458   -7.0235  -12.0806 C   0  0  0  0  0  0  0  0  0  0  0  0
   -4.2079   -6.4309  -10.6981 C   0  0  0  0  0  0  0  0  0  0  0  0
   -3.6499   -7.3237   -9.6282 C   0  0  0  0  0  0  0  0  0  0  0  0
   -2.2818   -7.2560  -12.3993 S   0  0  0  0  0  0  0  0  0  0  0  0
   -1.4484   -5.6872  -12.7214 C   0  0  0  0  0  0  0  0  0  0  0  0
   -0.8281   -5.7698  -14.0771 C   0  0  0  0  0  0  0  0  0  0  0  0
   -1.2100   -4.9664  -15.0846 N   0  0  0  0  0  0  0  0  0  0  0  0
   -0.6483   -5.0374  -16.3153 C   0  0  0  0  0  0  0  0  0  0  0  0
   -1.0425   -4.2138  -17.3438 C   0  0  0  0  0  0  0  0  0  0  0  0
   -0.4604   -4.2852  -18.6267 C   0  0  0  0  0  0  0  0  0  0  0  0
    0.5293   -5.2082  -18.8454 C   0  0  0  0  0  0  0  0  0  0  0  0
    0.9458   -6.0548  -17.8174 C   0  0  0  0  0  0  0  0  0  0  0  0
    0.3504   -5.9527  -16.5772 C   0  0  0  0  0  0  0  0  0  0  0  0
    0.7346   -6.7726  -15.5356 C   0  0  0  0  0  0  0  0  0  0  0  0
    1.6477   -7.6103  -15.7733 O   0  0  0  0  0  0  0  0  0  0  0  0
    0.1443   -6.6624  -14.3286 N   0  0  0  0  0  0  0  0  0  0  0  0
    1.9320   -6.9633  -18.0632 F   0  0  0  0  0  0  0  0  0  0  0  0
   -0.8876   -3.4537  -19.5898 O   0  0  0  0  0  0  0  0  0  0  0  0
   -0.5175   -3.1200  -20.8495 C   0  0  0  0  0  0  0  0  0  0  0  0
   -1.3439   -2.0840  -21.5694 C   0  0  0  0  0  0  0  0  0  0  0  0
   -2.0849   -2.5613  -22.8304 C   0  0  0  0  0  0  0  0  0  0  0  0
   -2.8091   -2.2664  -21.5894 C   0  0  0  0  0  0  0  0  0  0  0  0
  1  2  1  0
  2  3  1  0
  3  4  1  0
  4  5  1  0
  5  6  1  0
  6  7  1  0
  5  8  1  0
  8  9  1  0
  9 10  1  0
 10 11  2  0
 11 12  1  0
 12 13  2  0
 13 14  1  0
 14 15  2  0
 15 16  1  0
 16 17  2  0
 17 18  1  0
 18 19  2  0
 18 20  1  0
 16 21  1  0
 14 22  1  0
 22 23  1  0
 23 24  1  0
 24 25  1  0
 25 26  1  0
  7  2  1  0
 20 10  1  0
 17 12  1  0
 26 24  1  0
M  END
$$$$
