
     RDKit          3D

 26 29  0  0  0  0  0  0  0  0999 V2000
   -3.1891   -9.4771   -8.6933 O   0  0  0  0  0  0  0  0  0  0  0  0
   -3.0741   -8.7740   -9.9183 C   0  0  0  0  0  0  0  0  0  0  0  0
   -3.6414   -9.6565  -10.9705 C   0  0  0  0  0  0  0  0  0  0  0  0
   -4.3326   -8.9812  -12.1007 C   0  0  0  0  0  0  0  0  0  0  0  0
   -3.8522   -7.5609  -12.2127 C   0  0  0  0  0  0  0  0  0  0  0  0
   -4.3021   -6.8396  -10.9613 C   0  0  0  0  0  0  0  0  0  0  0  0
   -3.7462   -7.4640   -9.7147 C   0  0  0  0  0  0  0  0  0  0  0  0
   -2.0481   -7.4868  -12.2975 S   0  0  0  0  0  0  0  0  0  0  0  0
   -1.4636   -5.8150  -12.6483 C   0  0  0  0  0  0  0  0  0  0  0  0
   -0.8479   -5.8228  -14.0085 C   0  0  0  0  0  0  0  0  0  0  0  0
   -1.2447   -4.9765  -14.9743 N   0  0  0  0  0  0  0  0  0  0  0  0
   -0.6872   -4.9796  -16.2089 C   0  0  0  0  0  0  0  0  0  0  0  0
   -1.0966   -4.1122  -17.1945 C   0  0  0  0  0  0  0  0  0  0  0  0
   -0.5189   -4.1129  -18.4814 C   0  0  0  0  0  0  0  0  0  0  0  0
    0.4823   -5.0105  -18.7483 C   0  0  0  0  0  0  0  0  0  0  0  0
    0.9144   -5.9005  -17.7643 C   0  0  0  0  0  0  0  0  0  0  0  0
    0.3227   -5.8672  -16.5186 C   0  0  0  0  0  0  0  0  0  0  0  0
    0.7223   -6.7316  -15.5197 C   0  0  0  0  0  0  0  0  0  0  0  0
    1.6456   -7.5441  -15.8011 O   0  0  0  0  0  0  0  0  0  0  0  0
    0.1355   -6.6887  -14.3067 N   0  0  0  0  0  0  0  0  0  0  0  0
    1.9118   -6.7823  -18.0577 F   0  0  0  0  0  0  0  0  0  0  0  0
   -0.9613   -3.2413  -19.4012 O   0  0  0  0  0  0  0  0  0  0  0  0
   -0.7229   -2.9691  -20.7067 C   0  0  0  0  0  0  0  0  0  0  0  0
   -1.5364   -1.8756  -21.3524 C   0  0  0  0  0  0  0  0  0  0  0  0
   -2.1218   -2.1923  -22.7396 C   0  0  0  0  0  0  0  0  0  0  0  0
   -2.9792   -2.1189  -21.5517 C   0  0  0  0  0  0  0  0  0  0  0  0
  1  2  1  0
  2  3  1  0
  3  4  1  0
  4  5  1  0
  5  6  1  0
  6  7  1  0
  5  8  1  0
  8  9  1  0
  9 10  1  0
 10 11  2  0
 11 12  1  0
 12 13  2  0
 13 14  1  0
 14 15  2  0
 15 16  1  0
 16 17  2  0
 17 18  1  0
 18 19  2  0
 18 20  1  0
 16 21  1  0
 14 22  1  0
 22 23  1  0
 23 24  1  0
 24 25  1  0
 25 26  1  0
  7  2  1  0
 20 10  1  0
 17 12  1  0
 26 24  1  0
M  END
$$$$
