
     RDKit          3D

 26 29  0  0  0  0  0  0  0  0999 V2000
   -3.5838   -9.3304   -8.8167 O   0  0  0  0  0  0  0  0  0  0  0  0
   -3.4361   -8.6463  -10.0489 C   0  0  0  0  0  0  0  0  0  0  0  0
   -4.1654   -9.4438  -11.0687 C   0  0  0  0  0  0  0  0  0  0  0  0
   -4.8149   -8.6808  -12.1673 C   0  0  0  0  0  0  0  0  0  0  0  0
   -4.1568   -7.3363  -12.3085 C   0  0  0  0  0  0  0  0  0  0  0  0
   -4.4463   -6.5642  -11.0401 C   0  0  0  0  0  0  0  0  0  0  0  0
   -3.9183   -7.2593   -9.8190 C   0  0  0  0  0  0  0  0  0  0  0  0
   -2.3650   -7.5015  -12.4805 S   0  0  0  0  0  0  0  0  0  0  0  0
   -1.5724   -5.9070  -12.7789 C   0  0  0  0  0  0  0  0  0  0  0  0
   -0.9701   -5.9453  -14.1446 C   0  0  0  0  0  0  0  0  0  0  0  0
   -1.3595   -5.1044  -15.1181 N   0  0  0  0  0  0  0  0  0  0  0  0
   -0.8141   -5.1351  -16.3577 C   0  0  0  0  0  0  0  0  0  0  0  0
   -1.2160   -4.2732  -17.3512 C   0  0  0  0  0  0  0  0  0  0  0  0
   -0.6508   -4.3026  -18.6433 C   0  0  0  0  0  0  0  0  0  0  0  0
    0.3300   -5.2232  -18.9073 C   0  0  0  0  0  0  0  0  0  0  0  0
    0.7541   -6.1083  -17.9154 C   0  0  0  0  0  0  0  0  0  0  0  0
    0.1752   -6.0465  -16.6647 C   0  0  0  0  0  0  0  0  0  0  0  0
    0.5674   -6.9052  -15.6579 C   0  0  0  0  0  0  0  0  0  0  0  0
    1.4719   -7.7394  -15.9369 O   0  0  0  0  0  0  0  0  0  0  0  0
   -0.0067   -6.8343  -14.4402 N   0  0  0  0  0  0  0  0  0  0  0  0
    1.7311   -7.0134  -18.2060 F   0  0  0  0  0  0  0  0  0  0  0  0
   -1.0849   -3.4349  -19.5708 O   0  0  0  0  0  0  0  0  0  0  0  0
   -0.8038   -3.1393  -20.8626 C   0  0  0  0  0  0  0  0  0  0  0  0
   -1.6388   -2.0781  -21.5343 C   0  0  0  0  0  0  0  0  0  0  0  0
   -2.3397   -2.4900  -22.8406 C   0  0  0  0  0  0  0  0  0  0  0  0
   -3.0984   -2.2922  -21.6009 C   0  0  0  0  0  0  0  0  0  0  0  0
  1  2  1  0
  2  3  1  0
  3  4  1  0
  4  5  1  0
  5  6  1  0
  6  7  1  0
  5  8  1  0
  8  9  1  0
  9 10  1  0
 10 11  2  0
 11 12  1  0
 12 13  2  0
 13 14  1  0
 14 15  2  0
 15 16  1  0
 16 17  2  0
 17 18  1  0
 18 19  2  0
 18 20  1  0
 16 21  1  0
 14 22  1  0
 22 23  1  0
 23 24  1  0
 24 25  1  0
 25 26  1  0
  7  2  1  0
 20 10  1  0
 17 12  1  0
 26 24  1  0
M  END
$$$$
