
     RDKit          3D

 26 29  0  0  0  0  0  0  0  0999 V2000
   -5.7016   -8.8789   -9.8494 O   0  0  0  0  0  0  0  0  0  0  0  0
   -4.5495   -8.4141  -10.5311 C   0  0  0  0  0  0  0  0  0  0  0  0
   -4.0378   -7.2522   -9.7590 C   0  0  0  0  0  0  0  0  0  0  0  0
   -2.5632   -7.0612   -9.7473 C   0  0  0  0  0  0  0  0  0  0  0  0
   -1.9532   -7.7526  -10.9350 C   0  0  0  0  0  0  0  0  0  0  0  0
   -2.1803   -9.2369  -10.7504 C   0  0  0  0  0  0  0  0  0  0  0  0
   -3.6384   -9.5814  -10.6592 C   0  0  0  0  0  0  0  0  0  0  0  0
   -2.7542   -7.2388  -12.4718 S   0  0  0  0  0  0  0  0  0  0  0  0
   -2.2892   -5.5578  -12.9383 C   0  0  0  0  0  0  0  0  0  0  0  0
   -1.4840   -5.6386  -14.1931 C   0  0  0  0  0  0  0  0  0  0  0  0
   -1.7237   -4.8377  -15.2454 N   0  0  0  0  0  0  0  0  0  0  0  0
   -0.9941   -4.9071  -16.3847 C   0  0  0  0  0  0  0  0  0  0  0  0
   -1.2431   -4.0859  -17.4595 C   0  0  0  0  0  0  0  0  0  0  0  0
   -0.4860   -4.1557  -18.6477 C   0  0  0  0  0  0  0  0  0  0  0  0
    0.5287   -5.0744  -18.7237 C   0  0  0  0  0  0  0  0  0  0  0  0
    0.8000   -5.9184  -17.6461 C   0  0  0  0  0  0  0  0  0  0  0  0
    0.0354   -5.8180  -16.5022 C   0  0  0  0  0  0  0  0  0  0  0  0
    0.2728   -6.6354  -15.4159 C   0  0  0  0  0  0  0  0  0  0  0  0
    1.2139   -7.4692  -15.5215 O   0  0  0  0  0  0  0  0  0  0  0  0
   -0.4820   -6.5271  -14.3041 N   0  0  0  0  0  0  0  0  0  0  0  0
    1.8149   -6.8226  -17.7495 F   0  0  0  0  0  0  0  0  0  0  0  0
   -0.7770   -3.3267  -19.6624 O   0  0  0  0  0  0  0  0  0  0  0  0
   -0.2833   -3.0535  -20.8940 C   0  0  0  0  0  0  0  0  0  0  0  0
   -0.9347   -1.9412  -21.6771 C   0  0  0  0  0  0  0  0  0  0  0  0
   -1.3326   -2.2721  -23.1259 C   0  0  0  0  0  0  0  0  0  0  0  0
   -2.3454   -2.1167  -22.0764 C   0  0  0  0  0  0  0  0  0  0  0  0
  1  2  1  0
  2  3  1  0
  3  4  1  0
  4  5  1  0
  5  6  1  0
  6  7  1  0
  5  8  1  0
  8  9  1  0
  9 10  1  0
 10 11  2  0
 11 12  1  0
 12 13  2  0
 13 14  1  0
 14 15  2  0
 15 16  1  0
 16 17  2  0
 17 18  1  0
 18 19  2  0
 18 20  1  0
 16 21  1  0
 14 22  1  0
 22 23  1  0
 23 24  1  0
 24 25  1  0
 25 26  1  0
  7  2  1  0
 20 10  1  0
 17 12  1  0
 26 24  1  0
M  END
$$$$
