
     RDKit          3D

 26 29  0  0  0  0  0  0  0  0999 V2000
   -3.2109   -9.6939   -8.9863 O   0  0  0  0  0  0  0  0  0  0  0  0
   -3.1525   -8.8295  -10.1077 C   0  0  0  0  0  0  0  0  0  0  0  0
   -4.0538   -9.4074  -11.1380 C   0  0  0  0  0  0  0  0  0  0  0  0
   -4.7635   -8.4399  -12.0163 C   0  0  0  0  0  0  0  0  0  0  0  0
   -4.0230   -7.1314  -12.0312 C   0  0  0  0  0  0  0  0  0  0  0  0
   -4.1041   -6.5588  -10.6333 C   0  0  0  0  0  0  0  0  0  0  0  0
   -3.4955   -7.4719   -9.6092 C   0  0  0  0  0  0  0  0  0  0  0  0
   -2.2811   -7.3719  -12.4501 S   0  0  0  0  0  0  0  0  0  0  0  0
   -1.4522   -5.8039  -12.7875 C   0  0  0  0  0  0  0  0  0  0  0  0
   -0.8783   -5.8780  -14.1639 C   0  0  0  0  0  0  0  0  0  0  0  0
   -1.2987   -5.0730  -15.1546 N   0  0  0  0  0  0  0  0  0  0  0  0
   -0.7791   -5.1363  -16.4041 C   0  0  0  0  0  0  0  0  0  0  0  0
   -1.2126   -4.3110  -17.4152 C   0  0  0  0  0  0  0  0  0  0  0  0
   -0.6743   -4.3744  -18.7176 C   0  0  0  0  0  0  0  0  0  0  0  0
    0.3122   -5.2912  -18.9736 C   0  0  0  0  0  0  0  0  0  0  0  0
    0.7682   -6.1393  -17.9637 C   0  0  0  0  0  0  0  0  0  0  0  0
    0.2150   -6.0450  -16.7035 C   0  0  0  0  0  0  0  0  0  0  0  0
    0.6390   -6.8667  -15.6790 C   0  0  0  0  0  0  0  0  0  0  0  0
    1.5479   -7.6984  -15.9509 O   0  0  0  0  0  0  0  0  0  0  0  0
    0.0898   -6.7643  -14.4520 N   0  0  0  0  0  0  0  0  0  0  0  0
    1.7503   -7.0414  -18.2467 F   0  0  0  0  0  0  0  0  0  0  0  0
   -1.1387   -3.5417  -19.6623 O   0  0  0  0  0  0  0  0  0  0  0  0
   -0.9491   -3.3400  -20.9883 C   0  0  0  0  0  0  0  0  0  0  0  0
   -1.7306   -2.2300  -21.6453 C   0  0  0  0  0  0  0  0  0  0  0  0
   -2.8524   -2.6636  -22.6047 C   0  0  0  0  0  0  0  0  0  0  0  0
   -3.1569   -2.0900  -21.2894 C   0  0  0  0  0  0  0  0  0  0  0  0
  1  2  1  0
  2  3  1  0
  3  4  1  0
  4  5  1  0
  5  6  1  0
  6  7  1  0
  5  8  1  0
  8  9  1  0
  9 10  1  0
 10 11  2  0
 11 12  1  0
 12 13  2  0
 13 14  1  0
 14 15  2  0
 15 16  1  0
 16 17  2  0
 17 18  1  0
 18 19  2  0
 18 20  1  0
 16 21  1  0
 14 22  1  0
 22 23  1  0
 23 24  1  0
 24 25  1  0
 25 26  1  0
  7  2  1  0
 20 10  1  0
 17 12  1  0
 26 24  1  0
M  END
$$$$
