
     RDKit          3D

 26 29  0  0  0  0  0  0  0  0999 V2000
   -2.3030  -40.5442  -29.8319 S   0  0  0  0  0  0  0  0  0  0  0  0
   -2.8969  -39.7085  -31.2851 C   0  0  2  0  0  0  0  0  0  0  0  0
   -3.5823  -38.3950  -30.9831 C   0  0  0  0  0  0  0  0  0  0  0  0
   -4.1486  -37.7288  -32.1925 C   0  0  0  0  0  0  0  0  0  0  0  0
   -4.8054  -38.6628  -33.1668 C   0  0  1  0  0  0  0  0  0  0  0  0
   -3.9386  -38.7915  -34.2645 O   0  0  0  0  0  0  0  0  0  0  0  0
   -4.9825  -40.0529  -32.5920 C   0  0  0  0  0  0  0  0  0  0  0  0
   -3.6558  -40.6302  -32.1660 C   0  0  0  0  0  0  0  0  0  0  0  0
   -1.9701  -42.2802  -29.9821 C   0  0  0  0  0  0  0  0  0  0  0  0
   -0.6198  -42.7046  -29.5502 C   0  0  0  0  0  0  0  0  0  0  0  0
    0.2791  -41.8085  -29.1089 N   0  0  0  0  0  0  0  0  0  0  0  0
    1.5078  -42.1102  -28.6809 C   0  0  0  0  0  0  0  0  0  0  0  0
    2.3423  -41.2638  -28.2694 O   0  0  0  0  0  0  0  0  0  0  0  0
    1.9159  -43.4340  -28.6792 C   0  0  0  0  0  0  0  0  0  0  0  0
    1.0080  -44.3705  -29.1287 C   0  0  0  0  0  0  0  0  0  0  0  0
   -0.2151  -43.9993  -29.5466 N   0  0  0  0  0  0  0  0  0  0  0  0
    1.4254  -45.6819  -29.1210 C   0  0  0  0  0  0  0  0  0  0  0  0
    2.6771  -46.0700  -28.6927 C   0  0  0  0  0  0  0  0  0  0  0  0
    3.0698  -47.4136  -28.6973 O   0  0  0  0  0  0  0  0  0  0  0  0
    2.3797  -48.3759  -29.4702 C   0  0  0  0  0  0  0  0  0  0  0  0
    3.0674  -49.6973  -29.3240 C   0  0  0  0  0  0  0  0  0  0  0  0
    3.2195  -50.3362  -27.9980 C   0  0  0  0  0  0  0  0  0  0  0  0
    2.1714  -50.8819  -28.9602 C   0  0  0  0  0  0  0  0  0  0  0  0
    3.5537  -45.0994  -28.2510 C   0  0  0  0  0  0  0  0  0  0  0  0
    3.1766  -43.7738  -28.2423 C   0  0  0  0  0  0  0  0  0  0  0  0
    4.0390  -42.8013  -27.8063 F   0  0  0  0  0  0  0  0  0  0  0  0
  2  1  1  1
  2  3  1  0
  3  4  1  0
  4  5  1  0
  5  6  1  6
  5  7  1  0
  7  8  1  0
  1  9  1  0
  9 10  1  0
 10 11  1  0
 11 12  1  0
 12 13  2  0
 12 14  1  0
 14 15  2  0
 15 16  1  0
 15 17  1  0
 17 18  2  0
 18 19  1  0
 19 20  1  0
 20 21  1  0
 21 22  1  0
 22 23  1  0
 18 24  1  0
 24 25  2  0
 25 26  1  0
  8  2  1  0
 16 10  2  0
 23 21  1  0
 25 14  1  0
M  END
$$$$
