
     RDKit          3D

 26 29  0  0  0  0  0  0  0  0999 V2000
    0.7543  -22.7815  -32.0425 S   0  0  0  0  0  0  0  0  0  0  0  0
    1.3670  -24.2999  -31.3484 C   0  0  2  0  0  0  0  0  0  0  0  0
    2.6141  -24.1168  -30.5132 C   0  0  0  0  0  0  0  0  0  0  0  0
    3.1737  -25.3986  -29.9925 C   0  0  0  0  0  0  0  0  0  0  0  0
    3.1376  -26.5360  -30.9715 C   0  0  1  0  0  0  0  0  0  0  0  0
    2.1117  -27.4027  -30.5603 O   0  0  0  0  0  0  0  0  0  0  0  0
    2.7776  -26.0738  -32.3682 C   0  0  0  0  0  0  0  0  0  0  0  0
    1.4436  -25.3701  -32.3733 C   0  0  0  0  0  0  0  0  0  0  0  0
   -0.7775  -22.8650  -32.9334 C   0  0  0  0  0  0  0  0  0  0  0  0
   -0.6857  -22.5603  -34.3786 C   0  0  0  0  0  0  0  0  0  0  0  0
    0.4750  -22.6959  -35.0420 N   0  0  0  0  0  0  0  0  0  0  0  0
    0.6374  -22.4639  -36.3473 C   0  0  0  0  0  0  0  0  0  0  0  0
    1.7285  -22.5937  -36.9595 O   0  0  0  0  0  0  0  0  0  0  0  0
   -0.4502  -22.0523  -37.1002 C   0  0  0  0  0  0  0  0  0  0  0  0
   -1.6518  -21.9068  -36.4382 C   0  0  0  0  0  0  0  0  0  0  0  0
   -1.7474  -22.1570  -35.1204 N   0  0  0  0  0  0  0  0  0  0  0  0
   -2.7245  -21.4985  -37.1977 C   0  0  0  0  0  0  0  0  0  0  0  0
   -2.6344  -21.2414  -38.5493 C   0  0  0  0  0  0  0  0  0  0  0  0
   -3.7460  -20.8280  -39.2928 O   0  0  0  0  0  0  0  0  0  0  0  0
   -5.0129  -20.6634  -38.6865 C   0  0  0  0  0  0  0  0  0  0  0  0
   -6.0378  -20.4535  -39.7569 C   0  0  0  0  0  0  0  0  0  0  0  0
   -6.0793  -19.1977  -40.5384 C   0  0  0  0  0  0  0  0  0  0  0  0
   -5.5148  -20.4521  -41.1939 C   0  0  0  0  0  0  0  0  0  0  0  0
   -1.4122  -21.4002  -39.1711 C   0  0  0  0  0  0  0  0  0  0  0  0
   -0.3118  -21.8072  -38.4480 C   0  0  0  0  0  0  0  0  0  0  0  0
    0.9070  -21.9677  -39.0548 F   0  0  0  0  0  0  0  0  0  0  0  0
  2  1  1  6
  2  3  1  0
  3  4  1  0
  4  5  1  0
  5  6  1  1
  5  7  1  0
  7  8  1  0
  1  9  1  0
  9 10  1  0
 10 11  1  0
 11 12  1  0
 12 13  2  0
 12 14  1  0
 14 15  2  0
 15 16  1  0
 15 17  1  0
 17 18  2  0
 18 19  1  0
 19 20  1  0
 20 21  1  0
 21 22  1  0
 22 23  1  0
 18 24  1  0
 24 25  2  0
 25 26  1  0
  8  2  1  0
 16 10  2  0
 23 21  1  0
 25 14  1  0
M  END
$$$$
