
     RDKit          3D

 26 29  0  0  0  0  0  0  0  0999 V2000
   -2.3806  -53.6581  -29.7045 S   0  0  0  0  0  0  0  0  0  0  0  0
   -1.5878  -55.2338  -29.9306 C   0  0  2  0  0  0  0  0  0  0  0  0
   -1.5837  -55.7019  -31.3684 C   0  0  0  0  0  0  0  0  0  0  0  0
   -0.9871  -57.0577  -31.5499 C   0  0  0  0  0  0  0  0  0  0  0  0
   -1.3571  -58.0476  -30.4839 C   0  0  1  0  0  0  0  0  0  0  0  0
   -0.2283  -58.2144  -29.6650 O   0  0  0  0  0  0  0  0  0  0  0  0
   -2.4662  -57.5334  -29.5896 C   0  0  0  0  0  0  0  0  0  0  0  0
   -2.0725  -56.2291  -28.9428 C   0  0  0  0  0  0  0  0  0  0  0  0
   -1.6337  -52.5407  -28.5467 C   0  0  0  0  0  0  0  0  0  0  0  0
   -0.7698  -51.4973  -29.1425 C   0  0  0  0  0  0  0  0  0  0  0  0
   -0.9602  -51.0793  -30.4053 N   0  0  0  0  0  0  0  0  0  0  0  0
   -0.2415  -50.1292  -31.0093 C   0  0  0  0  0  0  0  0  0  0  0  0
   -0.4274  -49.7447  -32.1923 O   0  0  0  0  0  0  0  0  0  0  0  0
    0.7819  -49.5101  -30.3103 C   0  0  0  0  0  0  0  0  0  0  0  0
    0.9943  -49.9246  -29.0117 C   0  0  0  0  0  0  0  0  0  0  0  0
    0.2334  -50.8879  -28.4625 N   0  0  0  0  0  0  0  0  0  0  0  0
    2.0130  -49.3010  -28.3280 C   0  0  0  0  0  0  0  0  0  0  0  0
    2.7962  -48.3117  -28.8839 C   0  0  0  0  0  0  0  0  0  0  0  0
    3.8245  -47.6971  -28.1600 O   0  0  0  0  0  0  0  0  0  0  0  0
    4.0198  -47.9726  -26.7868 C   0  0  0  0  0  0  0  0  0  0  0  0
    4.9896  -46.9793  -26.2272 C   0  0  0  0  0  0  0  0  0  0  0  0
    6.2074  -47.4210  -25.5119 C   0  0  0  0  0  0  0  0  0  0  0  0
    6.3425  -46.8925  -26.9348 C   0  0  0  0  0  0  0  0  0  0  0  0
    2.5485  -47.9279  -30.1865 C   0  0  0  0  0  0  0  0  0  0  0  0
    1.5380  -48.5267  -30.9077 C   0  0  0  0  0  0  0  0  0  0  0  0
    1.2833  -48.1540  -32.2021 F   0  0  0  0  0  0  0  0  0  0  0  0
  2  1  1  6
  2  3  1  0
  3  4  1  0
  4  5  1  0
  5  6  1  1
  5  7  1  0
  7  8  1  0
  1  9  1  0
  9 10  1  0
 10 11  1  0
 11 12  1  0
 12 13  2  0
 12 14  1  0
 14 15  2  0
 15 16  1  0
 15 17  1  0
 17 18  2  0
 18 19  1  0
 19 20  1  0
 20 21  1  0
 21 22  1  0
 22 23  1  0
 18 24  1  0
 24 25  2  0
 25 26  1  0
  8  2  1  0
 16 10  2  0
 23 21  1  0
 25 14  1  0
M  END
$$$$
