# created with PyMOL 3.1.4.1
@<TRIPOS>MOLECULE
obj01
31 34 1                 
SMALL
USER_CHARGES
@<TRIPOS>ATOM
1	   S	31.310	-30.627	-32.882	S.3	1	UNK0	0.000	
2	   C	31.267	-29.497	-31.524	C.3	1	UNK0	0.000	
3	   C	32.461	-28.562	-31.515	C.3	1	UNK0	0.000	
4	   C	32.301	-27.503	-30.440	C.3	1	UNK0	0.000	
5	   O	31.025	-27.023	-30.304	O.3	1	UNK0	0.000	
6	   C	30.064	-27.996	-30.074	C.3	1	UNK0	0.000	
7	   C	29.971	-28.775	-31.412	C.3	1	UNK0	0.000	
8	   C	29.755	-31.309	-33.330	C.3	1	UNK0	0.000	
9	   C	28.946	-30.585	-34.337	C.2	1	UNK0	0.000	
10	   N	28.426	-31.259	-35.386	N.2	1	UNK0	0.000	
11	   C	27.708	-30.680	-36.376	C.2	1	UNK0	0.000	
12	   C	27.211	-31.431	-37.414	C.2	1	UNK0	0.000	
13	   C	26.466	-30.802	-38.438	C.2	1	UNK0	0.000	
14	   O	26.001	-31.595	-39.431	O.3	1	UNK0	0.000	
15	   C	26.541	-32.701	-39.987	C.3	1	UNK0	0.000	
16	   C	26.841	-32.712	-41.451	C.3	1	UNK0	0.000	
17	   C	27.593	-33.955	-41.878	C.3	1	UNK0	0.000	
18	   C	26.615	-35.000	-42.397	C.3	1	UNK0	0.000	
19	   N	25.971	-34.502	-43.587	N.pl3	1	UNK0	0.000	
20	   C	25.666	-33.068	-43.590	C.3	1	UNK0	0.000	
21	   C	25.467	-32.689	-42.150	C.3	1	UNK0	0.000	
22	   C	25.647	-35.324	-44.692	C.2	1	UNK0	0.000	
23	   O	25.958	-36.539	-44.674	O.2	1	UNK0	0.000	
24	   C	24.947	-34.793	-45.879	C.3	1	UNK0	0.000	
25	   C	26.268	-29.445	-38.347	C.2	1	UNK0	0.000	
26	   C	26.768	-28.671	-37.301	C.2	1	UNK0	0.000	
27	   F	26.566	-27.332	-37.224	 F	1	UNK0	0.000	
28	   C	27.481	-29.310	-36.333	C.2	1	UNK0	0.000	
29	   C	28.010	-28.621	-35.266	C.2	1	UNK0	0.000	
30	   O	27.847	-27.359	-35.151	O.2	1	UNK0	0.000	
31	   N	28.711	-29.266	-34.322	N.2	1	UNK0	0.000	
@<TRIPOS>BOND
1 1 2 1
2 1 8 1
3 2 3 1
4 2 7 1
5 3 4 1
6 4 5 1
7 5 6 1
8 6 7 1
9 8 9 1
10 9 10 ar
11 9 31 ar
12 10 11 ar
13 11 12 ar
14 11 28 ar
15 12 13 ar
16 13 14 1
17 13 25 ar
18 14 15 1
19 15 16 1
20 16 17 1
21 16 21 1
22 17 18 1
23 18 19 1
24 19 20 1
25 19 22 1
26 20 21 1
27 22 23 2
28 22 24 1
29 25 26 ar
30 26 27 1
31 26 28 ar
32 28 29 ar
33 29 30 2
34 29 31 ar
@<TRIPOS>SUBSTRUCTURE
1	UNK0	1	GROUP	1 ****	UNK
