# created with PyMOL 3.1.4.1
@<TRIPOS>MOLECULE
obj01
31 34 1                 
SMALL
USER_CHARGES
@<TRIPOS>ATOM
1	   S	30.938	-30.596	-33.135	S.3	1	UNK0	0.000	
2	   C	30.890	-28.977	-32.427	C.3	1	UNK0	0.000	
3	   C	30.352	-28.984	-31.010	C.3	1	UNK0	0.000	
4	   C	30.486	-27.609	-30.381	C.3	1	UNK0	0.000	
5	   O	31.649	-26.956	-30.693	O.3	1	UNK0	0.000	
6	   C	31.885	-26.816	-32.053	C.3	1	UNK0	0.000	
7	   C	32.186	-28.255	-32.545	C.3	1	UNK0	0.000	
8	   C	29.385	-31.222	-33.662	C.3	1	UNK0	0.000	
9	   C	28.610	-30.418	-34.635	C.2	1	UNK0	0.000	
10	   N	28.132	-31.004	-35.756	N.2	1	UNK0	0.000	
11	   C	27.449	-30.347	-36.721	C.2	1	UNK0	0.000	
12	   C	26.996	-31.010	-37.835	C.2	1	UNK0	0.000	
13	   C	26.285	-30.300	-38.831	C.2	1	UNK0	0.000	
14	   O	25.862	-31.009	-39.903	O.3	1	UNK0	0.000	
15	   C	26.379	-32.121	-40.471	C.3	1	UNK0	0.000	
16	   C	25.714	-32.703	-41.676	C.3	1	UNK0	0.000	
17	   C	26.599	-32.656	-42.903	C.3	1	UNK0	0.000	
18	   C	27.333	-33.981	-43.065	C.3	1	UNK0	0.000	
19	   N	26.374	-35.029	-43.311	N.pl3	1	UNK0	0.000	
20	   C	25.106	-34.914	-42.583	C.3	1	UNK0	0.000	
21	   C	25.429	-34.174	-41.316	C.3	1	UNK0	0.000	
22	   C	26.618	-36.107	-44.194	C.2	1	UNK0	0.000	
23	   O	25.796	-37.053	-44.261	O.2	1	UNK0	0.000	
24	   C	27.821	-36.157	-45.049	C.3	1	UNK0	0.000	
25	   C	26.077	-28.956	-38.636	C.2	1	UNK0	0.000	
26	   C	26.532	-28.271	-37.510	C.2	1	UNK0	0.000	
27	   F	26.320	-26.943	-37.331	 F	1	UNK0	0.000	
28	   C	27.213	-28.986	-36.573	C.2	1	UNK0	0.000	
29	   C	27.698	-28.387	-35.433	C.2	1	UNK0	0.000	
30	   O	27.523	-27.139	-35.220	O.2	1	UNK0	0.000	
31	   N	28.366	-29.106	-34.521	N.2	1	UNK0	0.000	
@<TRIPOS>BOND
1 1 2 1
2 1 8 1
3 2 3 1
4 2 7 1
5 3 4 1
6 4 5 1
7 5 6 1
8 6 7 1
9 8 9 1
10 9 10 ar
11 9 31 ar
12 10 11 ar
13 11 12 ar
14 11 28 ar
15 12 13 ar
16 13 14 1
17 13 25 ar
18 14 15 1
19 15 16 1
20 16 17 1
21 16 21 1
22 17 18 1
23 18 19 1
24 19 20 1
25 19 22 1
26 20 21 1
27 22 23 2
28 22 24 1
29 25 26 ar
30 26 27 1
31 26 28 ar
32 28 29 ar
33 29 30 2
34 29 31 ar
@<TRIPOS>SUBSTRUCTURE
1	UNK0	1	GROUP	1 ****	UNK
