# created with PyMOL 3.1.4.1
@<TRIPOS>MOLECULE
obj01
26 29 1                 
SMALL
USER_CHARGES
@<TRIPOS>ATOM
1	   S	26.036	-31.219	-41.648	S.3	1	UNK0	0.000	
2	   C	25.796	-32.817	-42.391	C.3	1	UNK0	0.000	
3	   C	25.122	-32.754	-43.743	C.3	1	UNK0	0.000	
4	   C	24.851	-34.097	-44.335	C.3	1	UNK0	0.000	
5	   C	24.371	-35.124	-43.351	C.3	1	UNK0	0.000	
6	   O	25.441	-36.003	-43.115	O.3	1	UNK0	0.000	
7	   C	24.015	-34.509	-42.013	C.3	1	UNK0	0.000	
8	   C	25.197	-33.775	-41.430	C.3	1	UNK0	0.000	
9	   C	26.838	-31.180	-40.067	C.3	1	UNK0	0.000	
10	   C	26.644	-29.935	-39.290	C.2	1	UNK0	0.000	
11	   N	25.788	-28.986	-39.706	N.2	1	UNK0	0.000	
12	   C	25.538	-27.847	-39.054	C.2	1	UNK0	0.000	
13	   O	24.736	-26.965	-39.452	O.2	1	UNK0	0.000	
14	   C	26.192	-27.596	-37.859	C.2	1	UNK0	0.000	
15	   C	27.075	-28.558	-37.413	C.2	1	UNK0	0.000	
16	   N	27.281	-29.684	-38.119	N.2	1	UNK0	0.000	
17	   C	27.717	-28.297	-36.224	C.2	1	UNK0	0.000	
18	   C	27.510	-27.146	-35.495	C.2	1	UNK0	0.000	
19	   O	28.180	-26.912	-34.288	O.3	1	UNK0	0.000	
20	   C	29.019	-27.894	-33.714	C.3	1	UNK0	0.000	
21	   C	29.387	-27.465	-32.328	C.3	1	UNK0	0.000	
22	   C	30.796	-27.469	-31.877	C.3	1	UNK0	0.000	
23	   C	30.137	-26.137	-32.215	C.3	1	UNK0	0.000	
24	   C	26.618	-26.210	-35.978	C.2	1	UNK0	0.000	
25	   C	25.953	-26.431	-37.165	C.2	1	UNK0	0.000	
26	   F	25.065	-25.509	-37.655	 F	1	UNK0	0.000	
@<TRIPOS>BOND
1 1 2 1
2 1 9 1
3 2 3 1
4 2 8 1
5 3 4 1
6 4 5 1
7 5 6 1
8 5 7 1
9 7 8 1
10 9 10 1
11 10 11 ar
12 10 16 ar
13 11 12 ar
14 12 13 2
15 12 14 ar
16 14 15 ar
17 14 25 ar
18 15 16 ar
19 15 17 ar
20 17 18 ar
21 18 19 1
22 18 24 ar
23 19 20 1
24 20 21 1
25 21 22 1
26 21 23 1
27 22 23 1
28 24 25 ar
29 25 26 1
@<TRIPOS>SUBSTRUCTURE
1	UNK0	1	GROUP	1 ****	UNK
