# created with PyMOL 3.1.4.1
@<TRIPOS>MOLECULE
obj01
26 29 1                 
SMALL
USER_CHARGES
@<TRIPOS>ATOM
1	   S	0.090	-51.914	-30.933	S.3	1	UNK0	0.000	
2	   C	-0.482	-53.324	-30.012	C.3	1	UNK0	0.000	
3	   C	-0.719	-54.545	-30.871	C.3	1	UNK0	0.000	
4	   C	-1.272	-55.706	-30.113	C.3	1	UNK0	0.000	
5	   C	-2.312	-55.345	-29.094	C.3	1	UNK0	0.000	
6	   O	-1.709	-55.454	-27.830	O.3	1	UNK0	0.000	
7	   C	-2.768	-53.907	-29.230	C.3	1	UNK0	0.000	
8	   C	-1.600	-52.960	-29.107	C.3	1	UNK0	0.000	
9	   C	-0.459	-50.319	-30.386	C.3	1	UNK0	0.000	
10	   C	0.613	-49.393	-29.958	C.2	1	UNK0	0.000	
11	   N	0.849	-48.251	-30.625	N.2	1	UNK0	0.000	
12	   C	1.780	-47.353	-30.292	C.2	1	UNK0	0.000	
13	   O	1.992	-46.286	-30.924	O.2	1	UNK0	0.000	
14	   C	2.577	-47.587	-29.184	C.2	1	UNK0	0.000	
15	   C	2.352	-48.754	-28.484	C.2	1	UNK0	0.000	
16	   N	1.396	-49.617	-28.873	N.2	1	UNK0	0.000	
17	   C	3.149	-48.974	-27.385	C.2	1	UNK0	0.000	
18	   C	4.129	-48.093	-26.979	C.2	1	UNK0	0.000	
19	   O	4.924	-48.346	-25.854	O.3	1	UNK0	0.000	
20	   C	5.883	-47.408	-25.408	C.3	1	UNK0	0.000	
21	   C	6.519	-47.925	-24.156	C.3	1	UNK0	0.000	
22	   C	6.521	-47.122	-22.913	C.3	1	UNK0	0.000	
23	   C	5.562	-48.300	-23.024	C.3	1	UNK0	0.000	
24	   C	4.320	-46.937	-27.708	C.2	1	UNK0	0.000	
25	   C	3.544	-46.677	-28.817	C.2	1	UNK0	0.000	
26	   F	3.725	-45.533	-29.549	 F	1	UNK0	0.000	
@<TRIPOS>BOND
1 1 2 1
2 1 9 1
3 2 3 1
4 2 8 1
5 3 4 1
6 4 5 1
7 5 6 1
8 5 7 1
9 7 8 1
10 9 10 1
11 10 11 ar
12 10 16 ar
13 11 12 ar
14 12 13 2
15 12 14 ar
16 14 15 ar
17 14 25 ar
18 15 16 ar
19 15 17 ar
20 17 18 ar
21 18 19 1
22 18 24 ar
23 19 20 1
24 20 21 1
25 21 22 1
26 21 23 1
27 22 23 1
28 24 25 ar
29 25 26 1
@<TRIPOS>SUBSTRUCTURE
1	UNK0	1	GROUP	1 ****	UNK
