
     RDKit          3D

 31 34  0  0  0  0  0  0  0  0999 V2000
    1.8216   -7.2986  -16.3040 O   0  0  0  0  0  0  0  0  0  0  0  0
    0.9625   -6.3954  -16.4684 C   0  0  0  0  0  0  0  0  0  0  0  0
    0.9817   -5.5598  -17.5175 N   0  0  0  0  0  0  0  0  0  0  0  0
    0.0431   -4.5847  -17.6828 C   0  0  0  0  0  0  0  0  0  0  0  0
    0.1511   -3.7089  -18.8768 C   0  0  0  0  0  0  0  0  0  0  0  0
   -1.3588   -3.6221  -19.8398 S   0  0  0  0  0  0  0  0  0  0  0  0
   -1.1611   -4.3201  -21.4963 C   0  0  0  0  0  0  0  0  0  0  0  0
   -2.4255   -5.1263  -21.8049 C   0  0  0  0  0  0  0  0  0  0  0  0
   -3.4300   -4.2751  -22.5512 C   0  0  0  0  0  0  0  0  0  0  0  0
   -3.4563   -2.9623  -22.0944 O   0  0  0  0  0  0  0  0  0  0  0  0
   -2.2647   -2.2928  -22.2621 C   0  0  0  0  0  0  0  0  0  0  0  0
   -1.1003   -3.2237  -22.5566 C   0  0  0  0  0  0  0  0  0  0  0  0
   -0.9223   -4.4581  -16.7748 N   0  0  0  0  0  0  0  0  0  0  0  0
   -0.9736   -5.2780  -15.7094 C   0  0  0  0  0  0  0  0  0  0  0  0
   -1.9646   -5.1714  -14.7484 C   0  0  0  0  0  0  0  0  0  0  0  0
   -2.0392   -6.0017  -13.6446 C   0  0  0  0  0  0  0  0  0  0  0  0
   -3.0149   -5.9032  -12.6910 O   0  0  0  0  0  0  0  0  0  0  0  0
   -2.8416   -5.4362  -11.3900 C   0  0  0  0  0  0  0  0  0  0  0  0
   -4.1024   -5.5810  -10.5607 C   0  0  0  0  0  0  0  0  0  0  0  0
   -4.2982   -7.0572  -10.2904 C   0  0  0  0  0  0  0  0  0  0  0  0
   -5.4941   -7.2699   -9.3864 C   0  0  0  0  0  0  0  0  0  0  0  0
   -5.2095   -6.5635   -8.1350 N   0  0  0  0  0  0  0  0  0  0  0  0
   -4.0130   -5.7748   -8.0814 C   0  0  0  0  0  0  0  0  0  0  0  0
   -3.8805   -4.8464   -9.2648 C   0  0  0  0  0  0  0  0  0  0  0  0
   -6.1179   -6.6963   -7.0617 C   0  0  0  0  0  0  0  0  0  0  0  0
   -6.0002   -5.8230   -5.8673 C   0  0  0  0  0  0  0  0  0  0  0  0
   -7.0347   -7.5418   -7.0869 O   0  0  0  0  0  0  0  0  0  0  0  0
   -1.0876   -6.9939  -13.4725 C   0  0  0  0  0  0  0  0  0  0  0  0
   -0.0909   -7.1196  -14.4163 C   0  0  0  0  0  0  0  0  0  0  0  0
    0.8685   -8.0856  -14.2856 F   0  0  0  0  0  0  0  0  0  0  0  0
   -0.0311   -6.2737  -15.5232 C   0  0  0  0  0  0  0  0  0  0  0  0
  1  2  2  0
  2  3  1  0
  3  4  1  0
  4  5  1  0
  5  6  1  0
  6  7  1  0
  7  8  1  0
  8  9  1  0
  9 10  1  0
 10 11  1  0
 11 12  1  0
  4 13  2  0
 13 14  1  0
 14 15  2  0
 15 16  1  0
 16 17  1  0
 17 18  1  0
 18 19  1  0
 19 20  1  0
 20 21  1  0
 21 22  1  0
 22 23  1  0
 23 24  1  0
 22 25  1  0
 25 26  1  0
 25 27  2  0
 16 28  2  0
 28 29  1  0
 29 30  1  0
 29 31  2  0
 31  2  1  0
 12  7  1  0
 31 14  1  0
 24 19  1  0
M  END
$$$$
