
     RDKit          3D

 31 34  0  0  0  0  0  0  0  0999 V2000
    1.4912   -8.1252  -16.7982 O   0  0  0  0  0  0  0  0  0  0  0  0
    0.7487   -7.1877  -17.1863 C   0  0  0  0  0  0  0  0  0  0  0  0
    0.6549   -6.8236  -18.4739 N   0  0  0  0  0  0  0  0  0  0  0  0
   -0.1548   -5.8045  -18.8803 C   0  0  0  0  0  0  0  0  0  0  0  0
   -0.1884   -5.4765  -20.3279 C   0  0  0  0  0  0  0  0  0  0  0  0
    0.7863   -4.0343  -20.7579 S   0  0  0  0  0  0  0  0  0  0  0  0
    0.0658   -2.5014  -20.1245 C   0  0  0  0  0  0  0  0  0  0  0  0
    0.9723   -1.3522  -20.5737 C   0  0  0  0  0  0  0  0  0  0  0  0
    0.4747   -0.7595  -21.8742 C   0  0  0  0  0  0  0  0  0  0  0  0
   -0.0172   -1.7261  -22.7440 O   0  0  0  0  0  0  0  0  0  0  0  0
   -1.1065   -2.4108  -22.2533 C   0  0  0  0  0  0  0  0  0  0  0  0
   -1.2958   -2.2257  -20.7570 C   0  0  0  0  0  0  0  0  0  0  0  0
   -0.8745   -5.1507  -17.9710 N   0  0  0  0  0  0  0  0  0  0  0  0
   -0.8062   -5.4878  -16.6704 C   0  0  0  0  0  0  0  0  0  0  0  0
   -1.5419   -4.8271  -15.7014 C   0  0  0  0  0  0  0  0  0  0  0  0
   -1.4893   -5.1544  -14.3585 C   0  0  0  0  0  0  0  0  0  0  0  0
   -2.2130   -4.5070  -13.3950 O   0  0  0  0  0  0  0  0  0  0  0  0
   -1.9652   -4.5431  -12.0247 C   0  0  0  0  0  0  0  0  0  0  0  0
   -1.7865   -3.1551  -11.4419 C   0  0  0  0  0  0  0  0  0  0  0  0
   -3.1592   -2.5246  -11.3477 C   0  0  0  0  0  0  0  0  0  0  0  0
   -3.0669   -1.1654  -10.6869 C   0  0  0  0  0  0  0  0  0  0  0  0
   -2.5212   -1.3836   -9.3450 N   0  0  0  0  0  0  0  0  0  0  0  0
   -2.1013   -2.7140   -9.0131 C   0  0  0  0  0  0  0  0  0  0  0  0
   -1.1982   -3.3130  -10.0646 C   0  0  0  0  0  0  0  0  0  0  0  0
   -2.4397   -0.2850   -8.4612 C   0  0  0  0  0  0  0  0  0  0  0  0
   -3.1177    0.9938   -8.7900 C   0  0  0  0  0  0  0  0  0  0  0  0
   -1.8027   -0.3574   -7.3912 O   0  0  0  0  0  0  0  0  0  0  0  0
   -0.6679   -6.1892  -13.9409 C   0  0  0  0  0  0  0  0  0  0  0  0
    0.0745   -6.8621  -14.8875 C   0  0  0  0  0  0  0  0  0  0  0  0
    0.8981   -7.8900  -14.5190 F   0  0  0  0  0  0  0  0  0  0  0  0
    0.0090   -6.5186  -16.2373 C   0  0  0  0  0  0  0  0  0  0  0  0
  1  2  2  0
  2  3  1  0
  3  4  1  0
  4  5  1  0
  5  6  1  0
  6  7  1  0
  7  8  1  0
  8  9  1  0
  9 10  1  0
 10 11  1  0
 11 12  1  0
  4 13  2  0
 13 14  1  0
 14 15  2  0
 15 16  1  0
 16 17  1  0
 17 18  1  0
 18 19  1  0
 19 20  1  0
 20 21  1  0
 21 22  1  0
 22 23  1  0
 23 24  1  0
 22 25  1  0
 25 26  1  0
 25 27  2  0
 16 28  2  0
 28 29  1  0
 29 30  1  0
 29 31  2  0
 31  2  1  0
 12  7  1  0
 31 14  1  0
 24 19  1  0
M  END
$$$$
