
     RDKit          3D

 31 34  0  0  0  0  0  0  0  0999 V2000
    1.4911   -7.7915  -16.9542 O   0  0  0  0  0  0  0  0  0  0  0  0
    0.6402   -6.8904  -17.1659 C   0  0  0  0  0  0  0  0  0  0  0  0
    0.3229   -6.4692  -18.3993 N   0  0  0  0  0  0  0  0  0  0  0  0
   -0.6022   -5.4907  -18.6137 C   0  0  0  0  0  0  0  0  0  0  0  0
   -0.8832   -5.0930  -20.0163 C   0  0  0  0  0  0  0  0  0  0  0  0
    0.4139   -4.0970  -20.7514 S   0  0  0  0  0  0  0  0  0  0  0  0
    0.2831   -2.3512  -20.2984 C   0  0  0  0  0  0  0  0  0  0  0  0
    1.3978   -1.6044  -21.0358 C   0  0  0  0  0  0  0  0  0  0  0  0
    0.8877   -1.0482  -22.3476 C   0  0  0  0  0  0  0  0  0  0  0  0
    0.0009   -1.9115  -22.9810 O   0  0  0  0  0  0  0  0  0  0  0  0
   -1.1445   -2.1586  -22.2577 C   0  0  0  0  0  0  0  0  0  0  0  0
   -1.0243   -1.7442  -20.8008 C   0  0  0  0  0  0  0  0  0  0  0  0
   -1.2091   -4.9362  -17.5666 N   0  0  0  0  0  0  0  0  0  0  0  0
   -0.9166   -5.3330  -16.3148 C   0  0  0  0  0  0  0  0  0  0  0  0
   -1.5304   -4.7759  -15.2060 C   0  0  0  0  0  0  0  0  0  0  0  0
   -1.2472   -5.1661  -13.9096 C   0  0  0  0  0  0  0  0  0  0  0  0
   -1.8492   -4.6211  -12.8088 O   0  0  0  0  0  0  0  0  0  0  0  0
   -1.2010   -3.9719  -11.7604 C   0  0  0  0  0  0  0  0  0  0  0  0
   -2.1799   -3.3758  -10.7681 C   0  0  0  0  0  0  0  0  0  0  0  0
   -2.3176   -4.3574   -9.6244 C   0  0  0  0  0  0  0  0  0  0  0  0
   -3.2145   -3.7841   -8.5475 C   0  0  0  0  0  0  0  0  0  0  0  0
   -2.5769   -2.5516   -8.0778 N   0  0  0  0  0  0  0  0  0  0  0  0
   -1.3999   -2.1138   -8.7703 C   0  0  0  0  0  0  0  0  0  0  0  0
   -1.5894   -2.0838  -10.2680 C   0  0  0  0  0  0  0  0  0  0  0  0
   -3.1488   -1.8698   -6.9811 C   0  0  0  0  0  0  0  0  0  0  0  0
   -2.6871   -0.5055   -6.6228 C   0  0  0  0  0  0  0  0  0  0  0  0
   -4.0482   -2.3893   -6.2902 O   0  0  0  0  0  0  0  0  0  0  0  0
   -0.3079   -6.1601  -13.6868 C   0  0  0  0  0  0  0  0  0  0  0  0
    0.3168   -6.7300  -14.7753 C   0  0  0  0  0  0  0  0  0  0  0  0
    1.2501   -7.7145  -14.6009 F   0  0  0  0  0  0  0  0  0  0  0  0
    0.0188   -6.3241  -16.0756 C   0  0  0  0  0  0  0  0  0  0  0  0
  1  2  2  0
  2  3  1  0
  3  4  1  0
  4  5  1  0
  5  6  1  0
  6  7  1  0
  7  8  1  0
  8  9  1  0
  9 10  1  0
 10 11  1  0
 11 12  1  0
  4 13  2  0
 13 14  1  0
 14 15  2  0
 15 16  1  0
 16 17  1  0
 17 18  1  0
 18 19  1  0
 19 20  1  0
 20 21  1  0
 21 22  1  0
 22 23  1  0
 23 24  1  0
 22 25  1  0
 25 26  1  0
 25 27  2  0
 16 28  2  0
 28 29  1  0
 29 30  1  0
 29 31  2  0
 31  2  1  0
 12  7  1  0
 31 14  1  0
 24 19  1  0
M  END
$$$$
