
     RDKit          3D

 31 34  0  0  0  0  0  0  0  0999 V2000
    1.5701   -7.4810  -16.2612 O   0  0  0  0  0  0  0  0  0  0  0  0
    0.9477   -6.4409  -16.5949 C   0  0  0  0  0  0  0  0  0  0  0  0
    1.1423   -5.8263  -17.7712 N   0  0  0  0  0  0  0  0  0  0  0  0
    0.4598   -4.6984  -18.1197 C   0  0  0  0  0  0  0  0  0  0  0  0
    0.7471   -4.0915  -19.4439 C   0  0  0  0  0  0  0  0  0  0  0  0
   -0.3796   -2.7681  -19.8843 S   0  0  0  0  0  0  0  0  0  0  0  0
   -1.4326   -3.1984  -21.2900 C   0  0  0  0  0  0  0  0  0  0  0  0
   -2.3229   -1.9871  -21.5800 C   0  0  0  0  0  0  0  0  0  0  0  0
   -1.6936   -1.1054  -22.6368 C   0  0  0  0  0  0  0  0  0  0  0  0
   -0.3123   -1.0209  -22.5036 O   0  0  0  0  0  0  0  0  0  0  0  0
    0.3338   -2.2279  -22.6509 C   0  0  0  0  0  0  0  0  0  0  0  0
   -0.6069   -3.4173  -22.5551 C   0  0  0  0  0  0  0  0  0  0  0  0
   -0.4272   -4.1916  -17.2661 N   0  0  0  0  0  0  0  0  0  0  0  0
   -0.6490   -4.7808  -16.0771 C   0  0  0  0  0  0  0  0  0  0  0  0
   -1.5645   -4.2780  -15.1683 C   0  0  0  0  0  0  0  0  0  0  0  0
   -1.8105   -4.8648  -13.9402 C   0  0  0  0  0  0  0  0  0  0  0  0
   -2.7133   -4.3746  -13.0370 O   0  0  0  0  0  0  0  0  0  0  0  0
   -3.1601   -5.0290  -11.8912 C   0  0  0  0  0  0  0  0  0  0  0  0
   -2.3893   -4.6051  -10.6565 C   0  0  0  0  0  0  0  0  0  0  0  0
   -1.8641   -3.2084  -10.9094 C   0  0  0  0  0  0  0  0  0  0  0  0
   -1.1579   -2.6834   -9.6772 C   0  0  0  0  0  0  0  0  0  0  0  0
   -2.1495   -2.6596   -8.5992 N   0  0  0  0  0  0  0  0  0  0  0  0
   -3.4412   -3.2156   -8.8801 C   0  0  0  0  0  0  0  0  0  0  0  0
   -3.3552   -4.5893   -9.5012 C   0  0  0  0  0  0  0  0  0  0  0  0
   -1.7841   -2.0967   -7.3565 C   0  0  0  0  0  0  0  0  0  0  0  0
   -2.7129   -2.1642   -6.2006 C   0  0  0  0  0  0  0  0  0  0  0  0
   -0.6829   -1.5329   -7.1969 O   0  0  0  0  0  0  0  0  0  0  0  0
   -1.1193   -6.0109  -13.5818 C   0  0  0  0  0  0  0  0  0  0  0  0
   -0.2025   -6.5305  -14.4702 C   0  0  0  0  0  0  0  0  0  0  0  0
    0.5016   -7.6604  -14.1569 F   0  0  0  0  0  0  0  0  0  0  0  0
    0.0329   -5.9256  -15.7043 C   0  0  0  0  0  0  0  0  0  0  0  0
  1  2  2  0
  2  3  1  0
  3  4  1  0
  4  5  1  0
  5  6  1  0
  6  7  1  0
  7  8  1  0
  8  9  1  0
  9 10  1  0
 10 11  1  0
 11 12  1  0
  4 13  2  0
 13 14  1  0
 14 15  2  0
 15 16  1  0
 16 17  1  0
 17 18  1  0
 18 19  1  0
 19 20  1  0
 20 21  1  0
 21 22  1  0
 22 23  1  0
 23 24  1  0
 22 25  1  0
 25 26  1  0
 25 27  2  0
 16 28  2  0
 28 29  1  0
 29 30  1  0
 29 31  2  0
 31  2  1  0
 12  7  1  0
 31 14  1  0
 24 19  1  0
M  END
$$$$
