
     RDKit          3D

 31 34  0  0  0  0  0  0  0  0999 V2000
    1.6024   -7.7914  -15.8479 O   0  0  0  0  0  0  0  0  0  0  0  0
    0.8358   -6.9273  -16.3443 C   0  0  0  0  0  0  0  0  0  0  0  0
    0.8527   -6.6065  -17.6466 N   0  0  0  0  0  0  0  0  0  0  0  0
    0.0151   -5.6670  -18.1711 C   0  0  0  0  0  0  0  0  0  0  0  0
    0.1116   -5.3815  -19.6249 C   0  0  0  0  0  0  0  0  0  0  0  0
    0.8598   -3.7946  -19.9947 S   0  0  0  0  0  0  0  0  0  0  0  0
   -0.2834   -2.4171  -19.7384 C   0  0  0  0  0  0  0  0  0  0  0  0
    0.3831   -1.1605  -20.3050 C   0  0  0  0  0  0  0  0  0  0  0  0
   -0.0479   -0.9299  -21.7373 C   0  0  0  0  0  0  0  0  0  0  0  0
   -0.1695   -2.1159  -22.4524 O   0  0  0  0  0  0  0  0  0  0  0  0
   -1.1266   -2.9698  -21.9515 C   0  0  0  0  0  0  0  0  0  0  0  0
   -1.5665   -2.6038  -20.5439 C   0  0  0  0  0  0  0  0  0  0  0  0
   -0.8460   -5.0489  -17.3656 N   0  0  0  0  0  0  0  0  0  0  0  0
   -0.8917   -5.3445  -16.0540 C   0  0  0  0  0  0  0  0  0  0  0  0
   -1.7757   -4.7193  -15.1911 C   0  0  0  0  0  0  0  0  0  0  0  0
   -1.8421   -5.0053  -13.8394 C   0  0  0  0  0  0  0  0  0  0  0  0
   -2.7125   -4.3925  -12.9804 O   0  0  0  0  0  0  0  0  0  0  0  0
   -3.3045   -4.9765  -11.8627 C   0  0  0  0  0  0  0  0  0  0  0  0
   -2.7319   -4.4355  -10.5674 C   0  0  0  0  0  0  0  0  0  0  0  0
   -1.4625   -3.6872  -10.9125 C   0  0  0  0  0  0  0  0  0  0  0  0
   -0.8827   -3.0400   -9.6725 C   0  0  0  0  0  0  0  0  0  0  0  0
   -1.8945   -2.1077   -9.1694 N   0  0  0  0  0  0  0  0  0  0  0  0
   -3.1683   -2.0999   -9.8280 C   0  0  0  0  0  0  0  0  0  0  0  0
   -3.7454   -3.4864   -9.9842 C   0  0  0  0  0  0  0  0  0  0  0  0
   -1.5642   -1.2765   -8.0763 C   0  0  0  0  0  0  0  0  0  0  0  0
   -2.5956   -0.4072   -7.4570 C   0  0  0  0  0  0  0  0  0  0  0  0
   -0.4093   -1.2499   -7.6056 O   0  0  0  0  0  0  0  0  0  0  0  0
   -0.9929   -5.9592  -13.3021 C   0  0  0  0  0  0  0  0  0  0  0  0
   -0.1038   -6.5954  -14.1415 C   0  0  0  0  0  0  0  0  0  0  0  0
    0.7522   -7.5437  -13.6530 F   0  0  0  0  0  0  0  0  0  0  0  0
   -0.0506   -6.2945  -15.5020 C   0  0  0  0  0  0  0  0  0  0  0  0
  1  2  2  0
  2  3  1  0
  3  4  1  0
  4  5  1  0
  5  6  1  0
  6  7  1  0
  7  8  1  0
  8  9  1  0
  9 10  1  0
 10 11  1  0
 11 12  1  0
  4 13  2  0
 13 14  1  0
 14 15  2  0
 15 16  1  0
 16 17  1  0
 17 18  1  0
 18 19  1  0
 19 20  1  0
 20 21  1  0
 21 22  1  0
 22 23  1  0
 23 24  1  0
 22 25  1  0
 25 26  1  0
 25 27  2  0
 16 28  2  0
 28 29  1  0
 29 30  1  0
 29 31  2  0
 31  2  1  0
 12  7  1  0
 31 14  1  0
 24 19  1  0
M  END
$$$$
