
     RDKit          3D

 31 34  0  0  0  0  0  0  0  0999 V2000
    1.5337   -7.5905  -15.9492 O   0  0  0  0  0  0  0  0  0  0  0  0
    0.6073   -6.7595  -15.7709 C   0  0  0  0  0  0  0  0  0  0  0  0
   -0.0362   -6.6320  -14.6009 N   0  0  0  0  0  0  0  0  0  0  0  0
   -1.0394   -5.7260  -14.4221 C   0  0  0  0  0  0  0  0  0  0  0  0
   -1.6911   -5.6622  -13.0896 C   0  0  0  0  0  0  0  0  0  0  0  0
   -1.8116   -7.2548  -12.2747 S   0  0  0  0  0  0  0  0  0  0  0  0
   -3.5122   -7.8654  -12.2027 C   0  0  0  0  0  0  0  0  0  0  0  0
   -3.4490   -9.3449  -11.8137 C   0  0  0  0  0  0  0  0  0  0  0  0
   -3.5880   -9.5072  -10.3154 C   0  0  0  0  0  0  0  0  0  0  0  0
   -2.9310   -8.5054   -9.6099 O   0  0  0  0  0  0  0  0  0  0  0  0
   -3.4220   -7.2422   -9.8537 C   0  0  0  0  0  0  0  0  0  0  0  0
   -4.3015   -7.1787  -11.0911 C   0  0  0  0  0  0  0  0  0  0  0  0
   -1.3911   -4.9438  -15.4403 N   0  0  0  0  0  0  0  0  0  0  0  0
   -0.7683   -5.0432  -16.6286 C   0  0  0  0  0  0  0  0  0  0  0  0
   -1.1112   -4.2442  -17.7060 C   0  0  0  0  0  0  0  0  0  0  0  0
   -0.4865   -4.3270  -18.9373 C   0  0  0  0  0  0  0  0  0  0  0  0
   -0.8190   -3.5413  -20.0065 O   0  0  0  0  0  0  0  0  0  0  0  0
    0.0367   -3.1595  -21.0373 C   0  0  0  0  0  0  0  0  0  0  0  0
   -0.6232   -2.1857  -21.9936 C   0  0  0  0  0  0  0  0  0  0  0  0
   -1.0305   -0.9696  -21.1901 C   0  0  0  0  0  0  0  0  0  0  0  0
   -1.6170    0.0878  -22.1015 C   0  0  0  0  0  0  0  0  0  0  0  0
   -0.5700    0.4473  -23.0609 N   0  0  0  0  0  0  0  0  0  0  0  0
    0.6477   -0.3091  -23.0211 C   0  0  0  0  0  0  0  0  0  0  0  0
    0.4018   -1.7989  -23.0270 C   0  0  0  0  0  0  0  0  0  0  0  0
   -0.8135    1.5072  -23.9621 C   0  0  0  0  0  0  0  0  0  0  0  0
   -1.8953    2.4869  -23.6926 C   0  0  0  0  0  0  0  0  0  0  0  0
   -0.1339    1.6482  -24.9986 O   0  0  0  0  0  0  0  0  0  0  0  0
    0.5334   -5.2461  -19.1237 C   0  0  0  0  0  0  0  0  0  0  0  0
    0.8927   -6.0529  -18.0654 C   0  0  0  0  0  0  0  0  0  0  0  0
    1.8943   -6.9737  -18.2056 F   0  0  0  0  0  0  0  0  0  0  0  0
    0.2519   -5.9558  -16.8308 C   0  0  0  0  0  0  0  0  0  0  0  0
  1  2  2  0
  2  3  1  0
  3  4  1  0
  4  5  1  0
  5  6  1  0
  6  7  1  0
  7  8  1  0
  8  9  1  0
  9 10  1  0
 10 11  1  0
 11 12  1  0
  4 13  2  0
 13 14  1  0
 14 15  2  0
 15 16  1  0
 16 17  1  0
 17 18  1  0
 18 19  1  0
 19 20  1  0
 20 21  1  0
 21 22  1  0
 22 23  1  0
 23 24  1  0
 22 25  1  0
 25 26  1  0
 25 27  2  0
 16 28  2  0
 28 29  1  0
 29 30  1  0
 29 31  2  0
 31  2  1  0
 12  7  1  0
 31 14  1  0
 24 19  1  0
M  END
$$$$
