
     RDKit          3D

 31 34  0  0  0  0  0  0  0  0999 V2000
    1.4925   -7.5455  -15.9669 O   0  0  0  0  0  0  0  0  0  0  0  0
    0.9186   -6.6303  -16.6101 C   0  0  0  0  0  0  0  0  0  0  0  0
    1.2460   -6.3172  -17.8726 N   0  0  0  0  0  0  0  0  0  0  0  0
    0.6147   -5.3217  -18.5580 C   0  0  0  0  0  0  0  0  0  0  0  0
    1.0504   -5.0503  -19.9511 C   0  0  0  0  0  0  0  0  0  0  0  0
    0.9018   -3.3273  -20.4248 S   0  0  0  0  0  0  0  0  0  0  0  0
   -0.7366   -2.9313  -21.0797 C   0  0  0  0  0  0  0  0  0  0  0  0
   -0.8804   -1.4072  -21.0562 C   0  0  0  0  0  0  0  0  0  0  0  0
   -0.4752   -0.8143  -22.3884 C   0  0  0  0  0  0  0  0  0  0  0  0
    0.6157   -1.4678  -22.9503 O   0  0  0  0  0  0  0  0  0  0  0  0
    0.3808   -2.7944  -23.2353 C   0  0  0  0  0  0  0  0  0  0  0  0
   -0.8605   -3.3360  -22.5463 C   0  0  0  0  0  0  0  0  0  0  0  0
   -0.3567   -4.6393  -17.9553 N   0  0  0  0  0  0  0  0  0  0  0  0
   -0.7123   -4.9252  -16.6897 C   0  0  0  0  0  0  0  0  0  0  0  0
   -1.7180   -4.2338  -16.0361 C   0  0  0  0  0  0  0  0  0  0  0  0
   -2.1020   -4.5083  -14.7359 C   0  0  0  0  0  0  0  0  0  0  0  0
   -3.0946   -3.8303  -14.0831 O   0  0  0  0  0  0  0  0  0  0  0  0
   -3.1008   -3.4922  -12.7317 C   0  0  0  0  0  0  0  0  0  0  0  0
   -2.6686   -2.0574  -12.5020 C   0  0  0  0  0  0  0  0  0  0  0  0
   -3.7919   -1.1647  -12.9834 C   0  0  0  0  0  0  0  0  0  0  0  0
   -3.4657    0.2864  -12.6999 C   0  0  0  0  0  0  0  0  0  0  0  0
   -3.3129    0.4099  -11.2482 N   0  0  0  0  0  0  0  0  0  0  0  0
   -3.3709   -0.7964  -10.4749 C   0  0  0  0  0  0  0  0  0  0  0  0
   -2.4667   -1.8755  -11.0207 C   0  0  0  0  0  0  0  0  0  0  0  0
   -3.1195    1.6951  -10.6954 C   0  0  0  0  0  0  0  0  0  0  0  0
   -2.8404    1.8538   -9.2463 C   0  0  0  0  0  0  0  0  0  0  0  0
   -3.1772    2.7218  -11.4016 O   0  0  0  0  0  0  0  0  0  0  0  0
   -1.4633   -5.5190  -14.0356 C   0  0  0  0  0  0  0  0  0  0  0  0
   -0.4585   -6.2216  -14.6654 C   0  0  0  0  0  0  0  0  0  0  0  0
    0.1981   -7.2273  -14.0111 F   0  0  0  0  0  0  0  0  0  0  0  0
   -0.0844   -5.9313  -15.9769 C   0  0  0  0  0  0  0  0  0  0  0  0
  1  2  2  0
  2  3  1  0
  3  4  1  0
  4  5  1  0
  5  6  1  0
  6  7  1  0
  7  8  1  0
  8  9  1  0
  9 10  1  0
 10 11  1  0
 11 12  1  0
  4 13  2  0
 13 14  1  0
 14 15  2  0
 15 16  1  0
 16 17  1  0
 17 18  1  0
 18 19  1  0
 19 20  1  0
 20 21  1  0
 21 22  1  0
 22 23  1  0
 23 24  1  0
 22 25  1  0
 25 26  1  0
 25 27  2  0
 16 28  2  0
 28 29  1  0
 29 30  1  0
 29 31  2  0
 31  2  1  0
 12  7  1  0
 31 14  1  0
 24 19  1  0
M  END
$$$$
