
     RDKit          3D

 31 34  0  0  0  0  0  0  0  0999 V2000
    1.5585   -7.3939  -17.0605 O   0  0  0  0  0  0  0  0  0  0  0  0
    0.6400   -6.5413  -17.1622 C   0  0  0  0  0  0  0  0  0  0  0  0
    0.3078   -5.9703  -18.3296 N   0  0  0  0  0  0  0  0  0  0  0  0
   -0.6909   -5.0468  -18.4247 C   0  0  0  0  0  0  0  0  0  0  0  0
   -0.9825   -4.4714  -19.7619 C   0  0  0  0  0  0  0  0  0  0  0  0
    0.4559   -3.7651  -20.5664 S   0  0  0  0  0  0  0  0  0  0  0  0
    0.6561   -2.0056  -20.2003 C   0  0  0  0  0  0  0  0  0  0  0  0
    1.7751   -1.4772  -21.1017 C   0  0  0  0  0  0  0  0  0  0  0  0
    1.2017   -0.8948  -22.3754 C   0  0  0  0  0  0  0  0  0  0  0  0
    0.1201   -1.6260  -22.8532 O   0  0  0  0  0  0  0  0  0  0  0  0
   -0.9527   -1.6573  -21.9904 C   0  0  0  0  0  0  0  0  0  0  0  0
   -0.5918   -1.2139  -20.5826 C   0  0  0  0  0  0  0  0  0  0  0  0
   -1.3567   -4.7012  -17.3249 N   0  0  0  0  0  0  0  0  0  0  0  0
   -1.0514   -5.2527  -16.1365 C   0  0  0  0  0  0  0  0  0  0  0  0
   -1.7252   -4.9140  -14.9754 C   0  0  0  0  0  0  0  0  0  0  0  0
   -1.4304   -5.4664  -13.7421 C   0  0  0  0  0  0  0  0  0  0  0  0
   -2.0913   -5.1376  -12.5905 O   0  0  0  0  0  0  0  0  0  0  0  0
   -2.6040   -3.8818  -12.2728 C   0  0  0  0  0  0  0  0  0  0  0  0
   -2.7857   -3.7027  -10.7785 C   0  0  0  0  0  0  0  0  0  0  0  0
   -1.4339   -3.9119  -10.1308 C   0  0  0  0  0  0  0  0  0  0  0  0
   -1.5222   -3.6576   -8.6407 C   0  0  0  0  0  0  0  0  0  0  0  0
   -1.9495   -2.2664   -8.4736 N   0  0  0  0  0  0  0  0  0  0  0  0
   -2.2922   -1.5357   -9.6590 C   0  0  0  0  0  0  0  0  0  0  0  0
   -3.2548   -2.2909  -10.5439 C   0  0  0  0  0  0  0  0  0  0  0  0
   -1.9995   -1.7263   -7.1695 C   0  0  0  0  0  0  0  0  0  0  0  0
   -2.5560   -0.3695   -6.9407 C   0  0  0  0  0  0  0  0  0  0  0  0
   -1.5821   -2.3672   -6.1841 O   0  0  0  0  0  0  0  0  0  0  0  0
   -0.4164   -6.4052  -13.6406 C   0  0  0  0  0  0  0  0  0  0  0  0
    0.2690   -6.7586  -14.7831 C   0  0  0  0  0  0  0  0  0  0  0  0
    1.2770   -7.6815  -14.7282 F   0  0  0  0  0  0  0  0  0  0  0  0
   -0.0418   -6.1915  -16.0184 C   0  0  0  0  0  0  0  0  0  0  0  0
  1  2  2  0
  2  3  1  0
  3  4  1  0
  4  5  1  0
  5  6  1  0
  6  7  1  0
  7  8  1  0
  8  9  1  0
  9 10  1  0
 10 11  1  0
 11 12  1  0
  4 13  2  0
 13 14  1  0
 14 15  2  0
 15 16  1  0
 16 17  1  0
 17 18  1  0
 18 19  1  0
 19 20  1  0
 20 21  1  0
 21 22  1  0
 22 23  1  0
 23 24  1  0
 22 25  1  0
 25 26  1  0
 25 27  2  0
 16 28  2  0
 28 29  1  0
 29 30  1  0
 29 31  2  0
 31  2  1  0
 12  7  1  0
 31 14  1  0
 24 19  1  0
M  END
$$$$
