
     RDKit          3D

 31 34  0  0  0  0  0  0  0  0999 V2000
    1.4764   -7.8213  -16.0164 O   0  0  0  0  0  0  0  0  0  0  0  0
    0.6080   -6.9226  -15.8783 C   0  0  0  0  0  0  0  0  0  0  0  0
   -0.0912   -6.7592  -14.7453 N   0  0  0  0  0  0  0  0  0  0  0  0
   -1.0303   -5.7798  -14.6098 C   0  0  0  0  0  0  0  0  0  0  0  0
   -1.7522   -5.6811  -13.3162 C   0  0  0  0  0  0  0  0  0  0  0  0
   -1.8804   -7.2440  -12.4469 S   0  0  0  0  0  0  0  0  0  0  0  0
   -3.5553   -7.9241  -12.4949 C   0  0  0  0  0  0  0  0  0  0  0  0
   -3.4707   -9.3774  -12.0207 C   0  0  0  0  0  0  0  0  0  0  0  0
   -3.7410   -9.4684  -10.5344 C   0  0  0  0  0  0  0  0  0  0  0  0
   -3.1916   -8.4038   -9.8290 O   0  0  0  0  0  0  0  0  0  0  0  0
   -3.7068   -7.1776  -10.1854 C   0  0  0  0  0  0  0  0  0  0  0  0
   -4.4701   -7.2165  -11.4987 C   0  0  0  0  0  0  0  0  0  0  0  0
   -1.2602   -4.9606  -15.6336 N   0  0  0  0  0  0  0  0  0  0  0  0
   -0.5782   -5.0943  -16.7856 C   0  0  0  0  0  0  0  0  0  0  0  0
   -0.7946   -4.2583  -17.8678 C   0  0  0  0  0  0  0  0  0  0  0  0
   -0.1070   -4.3751  -19.0623 C   0  0  0  0  0  0  0  0  0  0  0  0
   -0.3145   -3.5533  -20.1359 O   0  0  0  0  0  0  0  0  0  0  0  0
    0.5911   -3.3108  -21.1663 C   0  0  0  0  0  0  0  0  0  0  0  0
    0.0255   -2.3694  -22.2113 C   0  0  0  0  0  0  0  0  0  0  0  0
   -1.0341   -1.5272  -21.5343 C   0  0  0  0  0  0  0  0  0  0  0  0
   -1.5808   -0.4974  -22.5004 C   0  0  0  0  0  0  0  0  0  0  0  0
   -0.4522    0.3446  -22.9045 N   0  0  0  0  0  0  0  0  0  0  0  0
    0.8508   -0.0329  -22.4397 C   0  0  0  0  0  0  0  0  0  0  0  0
    1.1520   -1.4914  -22.6890 C   0  0  0  0  0  0  0  0  0  0  0  0
   -0.7057    1.4696  -23.7200 C   0  0  0  0  0  0  0  0  0  0  0  0
    0.3894    2.4128  -24.0578 C   0  0  0  0  0  0  0  0  0  0  0  0
   -1.8444    1.6997  -24.1744 O   0  0  0  0  0  0  0  0  0  0  0  0
    0.8481   -5.3688  -19.2046 C   0  0  0  0  0  0  0  0  0  0  0  0
    1.0813   -6.2135  -18.1406 C   0  0  0  0  0  0  0  0  0  0  0  0
    2.0154   -7.2079  -18.2379 F   0  0  0  0  0  0  0  0  0  0  0  0
    0.3786   -6.0812  -16.9436 C   0  0  0  0  0  0  0  0  0  0  0  0
  1  2  2  0
  2  3  1  0
  3  4  1  0
  4  5  1  0
  5  6  1  0
  6  7  1  0
  7  8  1  0
  8  9  1  0
  9 10  1  0
 10 11  1  0
 11 12  1  0
  4 13  2  0
 13 14  1  0
 14 15  2  0
 15 16  1  0
 16 17  1  0
 17 18  1  0
 18 19  1  0
 19 20  1  0
 20 21  1  0
 21 22  1  0
 22 23  1  0
 23 24  1  0
 22 25  1  0
 25 26  1  0
 25 27  2  0
 16 28  2  0
 28 29  1  0
 29 30  1  0
 29 31  2  0
 31  2  1  0
 12  7  1  0
 31 14  1  0
 24 19  1  0
M  END
$$$$
