
     RDKit          3D

 31 34  0  0  0  0  0  0  0  0999 V2000
    1.9205   -7.6793  -16.5554 O   0  0  0  0  0  0  0  0  0  0  0  0
    1.0731   -6.8530  -16.9797 C   0  0  0  0  0  0  0  0  0  0  0  0
    0.9216   -6.5759  -18.2834 N   0  0  0  0  0  0  0  0  0  0  0  0
   -0.0019   -5.6771  -18.7292 C   0  0  0  0  0  0  0  0  0  0  0  0
   -0.0920   -5.4382  -20.1918 C   0  0  0  0  0  0  0  0  0  0  0  0
    0.9994   -4.1401  -20.7736 S   0  0  0  0  0  0  0  0  0  0  0  0
    0.4971   -2.5040  -20.1897 C   0  0  0  0  0  0  0  0  0  0  0  0
    1.3653   -1.4741  -20.9176 C   0  0  0  0  0  0  0  0  0  0  0  0
    0.6654   -0.9736  -22.1626 C   0  0  0  0  0  0  0  0  0  0  0  0
   -0.0343   -1.9798  -22.8188 O   0  0  0  0  0  0  0  0  0  0  0  0
   -1.0481   -2.5310  -22.0674 C   0  0  0  0  0  0  0  0  0  0  0  0
   -0.9417   -2.1895  -20.5906 C   0  0  0  0  0  0  0  0  0  0  0  0
   -0.7769   -5.0554  -17.8431 N   0  0  0  0  0  0  0  0  0  0  0  0
   -0.6535   -5.3078  -16.5275 C   0  0  0  0  0  0  0  0  0  0  0  0
   -1.4444   -4.6776  -15.5819 C   0  0  0  0  0  0  0  0  0  0  0  0
   -1.3370   -4.9196  -14.2243 C   0  0  0  0  0  0  0  0  0  0  0  0
   -2.1146   -4.3016  -13.2838 O   0  0  0  0  0  0  0  0  0  0  0  0
   -1.6768   -3.3685  -12.3467 C   0  0  0  0  0  0  0  0  0  0  0  0
   -2.4847   -3.4266  -11.0652 C   0  0  0  0  0  0  0  0  0  0  0  0
   -1.5389   -3.8244   -9.9527 C   0  0  0  0  0  0  0  0  0  0  0  0
   -2.2615   -3.8137   -8.6222 C   0  0  0  0  0  0  0  0  0  0  0  0
   -2.7385   -2.4448   -8.4107 N   0  0  0  0  0  0  0  0  0  0  0  0
   -2.5496   -1.5089   -9.4807 C   0  0  0  0  0  0  0  0  0  0  0  0
   -3.0286   -2.0460  -10.8081 C   0  0  0  0  0  0  0  0  0  0  0  0
   -3.3509   -2.1247   -7.1789 C   0  0  0  0  0  0  0  0  0  0  0  0
   -3.3131   -3.0879   -6.0502 C   0  0  0  0  0  0  0  0  0  0  0  0
   -3.9343   -1.0357   -7.0067 O   0  0  0  0  0  0  0  0  0  0  0  0
   -0.4001   -5.8320  -13.7667 C   0  0  0  0  0  0  0  0  0  0  0  0
    0.3992   -6.4723  -14.6893 C   0  0  0  0  0  0  0  0  0  0  0  0
    1.3368   -7.3805  -14.2812 F   0  0  0  0  0  0  0  0  0  0  0  0
    0.2771   -6.2160  -16.0545 C   0  0  0  0  0  0  0  0  0  0  0  0
  1  2  2  0
  2  3  1  0
  3  4  1  0
  4  5  1  0
  5  6  1  0
  6  7  1  0
  7  8  1  0
  8  9  1  0
  9 10  1  0
 10 11  1  0
 11 12  1  0
  4 13  2  0
 13 14  1  0
 14 15  2  0
 15 16  1  0
 16 17  1  0
 17 18  1  0
 18 19  1  0
 19 20  1  0
 20 21  1  0
 21 22  1  0
 22 23  1  0
 23 24  1  0
 22 25  1  0
 25 26  1  0
 25 27  2  0
 16 28  2  0
 28 29  1  0
 29 30  1  0
 29 31  2  0
 31  2  1  0
 12  7  1  0
 31 14  1  0
 24 19  1  0
M  END
$$$$
