
     RDKit          3D

 31 34  0  0  0  0  0  0  0  0999 V2000
    1.6800   -7.4628  -16.5291 O   0  0  0  0  0  0  0  0  0  0  0  0
    0.7634   -6.6597  -16.8384 C   0  0  0  0  0  0  0  0  0  0  0  0
    0.5977   -6.1954  -18.0858 N   0  0  0  0  0  0  0  0  0  0  0  0
   -0.4012   -5.3244  -18.4067 C   0  0  0  0  0  0  0  0  0  0  0  0
   -0.5009   -4.8671  -19.8157 C   0  0  0  0  0  0  0  0  0  0  0  0
    0.9773   -4.0422  -20.4068 S   0  0  0  0  0  0  0  0  0  0  0  0
    0.9522   -2.2640  -20.0793 C   0  0  0  0  0  0  0  0  0  0  0  0
    2.0434   -1.6261  -20.9432 C   0  0  0  0  0  0  0  0  0  0  0  0
    1.4673   -1.1430  -22.2566 C   0  0  0  0  0  0  0  0  0  0  0  0
    0.5030   -2.0071  -22.7629 O   0  0  0  0  0  0  0  0  0  0  0  0
   -0.5988   -2.1467  -21.9488 C   0  0  0  0  0  0  0  0  0  0  0  0
   -0.3601   -1.6339  -20.5385 C   0  0  0  0  0  0  0  0  0  0  0  0
   -1.2378   -4.9224  -17.4523 N   0  0  0  0  0  0  0  0  0  0  0  0
   -1.1024   -5.3669  -16.1897 C   0  0  0  0  0  0  0  0  0  0  0  0
   -1.9561   -4.9675  -15.1756 C   0  0  0  0  0  0  0  0  0  0  0  0
   -1.8380   -5.4097  -13.8703 C   0  0  0  0  0  0  0  0  0  0  0  0
   -2.6772   -5.0202  -12.8628 O   0  0  0  0  0  0  0  0  0  0  0  0
   -2.8729   -3.7134  -12.4216 C   0  0  0  0  0  0  0  0  0  0  0  0
   -3.0320   -3.6388  -10.9159 C   0  0  0  0  0  0  0  0  0  0  0  0
   -1.6431   -3.6349  -10.3146 C   0  0  0  0  0  0  0  0  0  0  0  0
   -1.7235   -3.4697   -8.8117 C   0  0  0  0  0  0  0  0  0  0  0  0
   -2.3827   -2.1855   -8.5619 N   0  0  0  0  0  0  0  0  0  0  0  0
   -2.8889   -1.4730   -9.6988 C   0  0  0  0  0  0  0  0  0  0  0  0
   -3.7335   -2.3450  -10.5968 C   0  0  0  0  0  0  0  0  0  0  0  0
   -2.4821   -1.7239   -7.2308 C   0  0  0  0  0  0  0  0  0  0  0  0
   -3.2064   -0.4647   -6.9260 C   0  0  0  0  0  0  0  0  0  0  0  0
   -1.9698   -2.3544   -6.2843 O   0  0  0  0  0  0  0  0  0  0  0  0
   -0.8245   -6.2947  -13.5396 C   0  0  0  0  0  0  0  0  0  0  0  0
    0.0381   -6.7070  -14.5325 C   0  0  0  0  0  0  0  0  0  0  0  0
    1.0524   -7.5800  -14.2500 F   0  0  0  0  0  0  0  0  0  0  0  0
   -0.0958   -6.2508  -15.8434 C   0  0  0  0  0  0  0  0  0  0  0  0
  1  2  2  0
  2  3  1  0
  3  4  1  0
  4  5  1  0
  5  6  1  0
  6  7  1  0
  7  8  1  0
  8  9  1  0
  9 10  1  0
 10 11  1  0
 11 12  1  0
  4 13  2  0
 13 14  1  0
 14 15  2  0
 15 16  1  0
 16 17  1  0
 17 18  1  0
 18 19  1  0
 19 20  1  0
 20 21  1  0
 21 22  1  0
 22 23  1  0
 23 24  1  0
 22 25  1  0
 25 26  1  0
 25 27  2  0
 16 28  2  0
 28 29  1  0
 29 30  1  0
 29 31  2  0
 31  2  1  0
 12  7  1  0
 31 14  1  0
 24 19  1  0
M  END
$$$$
