
     RDKit          3D

 31 34  0  0  0  0  0  0  0  0999 V2000
    1.6236   -7.6850  -15.9604 O   0  0  0  0  0  0  0  0  0  0  0  0
    0.6907   -6.8644  -15.7671 C   0  0  0  0  0  0  0  0  0  0  0  0
    0.0448   -6.7649  -14.5958 N   0  0  0  0  0  0  0  0  0  0  0  0
   -0.9654   -5.8701  -14.4006 C   0  0  0  0  0  0  0  0  0  0  0  0
   -1.6194   -5.8374  -13.0681 C   0  0  0  0  0  0  0  0  0  0  0  0
   -1.9533   -7.4652  -12.3945 S   0  0  0  0  0  0  0  0  0  0  0  0
   -3.7220   -7.7709  -12.1750 C   0  0  0  0  0  0  0  0  0  0  0  0
   -3.8894   -9.2547  -11.8368 C   0  0  0  0  0  0  0  0  0  0  0  0
   -3.9187   -9.4584  -10.3375 C   0  0  0  0  0  0  0  0  0  0  0  0
   -3.0320   -8.6206   -9.6707 O   0  0  0  0  0  0  0  0  0  0  0  0
   -3.3092   -7.2811   -9.8289 C   0  0  0  0  0  0  0  0  0  0  0  0
   -4.2717   -7.0080  -10.9726 C   0  0  0  0  0  0  0  0  0  0  0  0
   -1.3215   -5.0705  -15.4037 N   0  0  0  0  0  0  0  0  0  0  0  0
   -0.6963   -5.1418  -16.5928 C   0  0  0  0  0  0  0  0  0  0  0  0
   -1.0436   -4.3242  -17.6548 C   0  0  0  0  0  0  0  0  0  0  0  0
   -0.4167   -4.3781  -18.8865 C   0  0  0  0  0  0  0  0  0  0  0  0
   -0.7535   -3.5739  -19.9405 O   0  0  0  0  0  0  0  0  0  0  0  0
    0.0966   -2.6845  -20.5940 C   0  0  0  0  0  0  0  0  0  0  0  0
   -0.6375   -1.8470  -21.6225 C   0  0  0  0  0  0  0  0  0  0  0  0
   -0.5865   -0.4089  -21.1536 C   0  0  0  0  0  0  0  0  0  0  0  0
   -1.2245    0.5003  -22.1827 C   0  0  0  0  0  0  0  0  0  0  0  0
   -0.4530    0.3472  -23.4187 N   0  0  0  0  0  0  0  0  0  0  0  0
    0.5798   -0.6476  -23.4314 C   0  0  0  0  0  0  0  0  0  0  0  0
    0.0963   -1.9874  -22.9301 C   0  0  0  0  0  0  0  0  0  0  0  0
   -0.7643    1.1782  -24.5175 C   0  0  0  0  0  0  0  0  0  0  0  0
   -1.4267    2.4889  -24.3023 C   0  0  0  0  0  0  0  0  0  0  0  0
   -0.4944    0.8378  -25.6868 O   0  0  0  0  0  0  0  0  0  0  0  0
    0.6103   -5.2858  -19.0894 C   0  0  0  0  0  0  0  0  0  0  0  0
    0.9741   -6.1106  -18.0467 C   0  0  0  0  0  0  0  0  0  0  0  0
    1.9827   -7.0210  -18.2036 F   0  0  0  0  0  0  0  0  0  0  0  0
    0.3309   -6.0426  -16.8114 C   0  0  0  0  0  0  0  0  0  0  0  0
  1  2  2  0
  2  3  1  0
  3  4  1  0
  4  5  1  0
  5  6  1  0
  6  7  1  0
  7  8  1  0
  8  9  1  0
  9 10  1  0
 10 11  1  0
 11 12  1  0
  4 13  2  0
 13 14  1  0
 14 15  2  0
 15 16  1  0
 16 17  1  0
 17 18  1  0
 18 19  1  0
 19 20  1  0
 20 21  1  0
 21 22  1  0
 22 23  1  0
 23 24  1  0
 22 25  1  0
 25 26  1  0
 25 27  2  0
 16 28  2  0
 28 29  1  0
 29 30  1  0
 29 31  2  0
 31  2  1  0
 12  7  1  0
 31 14  1  0
 24 19  1  0
M  END
$$$$
