
     RDKit          3D

 31 34  0  0  0  0  0  0  0  0999 V2000
    1.9406   -7.1852  -16.8093 O   0  0  0  0  0  0  0  0  0  0  0  0
    0.9605   -6.4410  -17.0670 C   0  0  0  0  0  0  0  0  0  0  0  0
    0.8108   -5.8236  -18.2484 N   0  0  0  0  0  0  0  0  0  0  0  0
   -0.2577   -5.0190  -18.5138 C   0  0  0  0  0  0  0  0  0  0  0  0
   -0.3327   -4.3792  -19.8514 C   0  0  0  0  0  0  0  0  0  0  0  0
    1.2016   -3.6037  -20.3610 S   0  0  0  0  0  0  0  0  0  0  0  0
    1.1568   -1.8047  -20.1834 C   0  0  0  0  0  0  0  0  0  0  0  0
    2.3156   -1.2366  -21.0071 C   0  0  0  0  0  0  0  0  0  0  0  0
    1.8476   -0.8646  -22.3974 C   0  0  0  0  0  0  0  0  0  0  0  0
    0.9235   -1.7701  -22.9063 O   0  0  0  0  0  0  0  0  0  0  0  0
   -0.2400   -1.8457  -22.1737 C   0  0  0  0  0  0  0  0  0  0  0  0
   -0.1125   -1.2182  -20.7957 C   0  0  0  0  0  0  0  0  0  0  0  0
   -1.1808   -4.8409  -17.5712 N   0  0  0  0  0  0  0  0  0  0  0  0
   -1.0641   -5.4439  -16.3742 C   0  0  0  0  0  0  0  0  0  0  0  0
   -2.0070   -5.2783  -15.3740 C   0  0  0  0  0  0  0  0  0  0  0  0
   -1.9099   -5.8868  -14.1357 C   0  0  0  0  0  0  0  0  0  0  0  0
   -2.8370   -5.7287  -13.1424 O   0  0  0  0  0  0  0  0  0  0  0  0
   -2.5705   -5.6825  -11.7759 C   0  0  0  0  0  0  0  0  0  0  0  0
   -3.8315   -5.8176  -10.9452 C   0  0  0  0  0  0  0  0  0  0  0  0
   -3.9786   -7.2795  -10.5820 C   0  0  0  0  0  0  0  0  0  0  0  0
   -5.1730   -7.4754   -9.6722 C   0  0  0  0  0  0  0  0  0  0  0  0
   -4.9216   -6.6812   -8.4672 N   0  0  0  0  0  0  0  0  0  0  0  0
   -3.7532   -5.8498   -8.4582 C   0  0  0  0  0  0  0  0  0  0  0  0
   -3.6441   -4.9948   -9.6979 C   0  0  0  0  0  0  0  0  0  0  0  0
   -5.8326   -6.7766   -7.3921 C   0  0  0  0  0  0  0  0  0  0  0  0
   -5.8066   -5.7759   -6.2962 C   0  0  0  0  0  0  0  0  0  0  0  0
   -6.6754   -7.6944   -7.3338 O   0  0  0  0  0  0  0  0  0  0  0  0
   -0.8260   -6.7051  -13.8615 C   0  0  0  0  0  0  0  0  0  0  0  0
    0.1261   -6.8854  -14.8418 C   0  0  0  0  0  0  0  0  0  0  0  0
    1.2121   -7.6850  -14.6136 F   0  0  0  0  0  0  0  0  0  0  0  0
    0.0121   -6.2639  -16.0848 C   0  0  0  0  0  0  0  0  0  0  0  0
  1  2  2  0
  2  3  1  0
  3  4  1  0
  4  5  1  0
  5  6  1  0
  6  7  1  0
  7  8  1  0
  8  9  1  0
  9 10  1  0
 10 11  1  0
 11 12  1  0
  4 13  2  0
 13 14  1  0
 14 15  2  0
 15 16  1  0
 16 17  1  0
 17 18  1  0
 18 19  1  0
 19 20  1  0
 20 21  1  0
 21 22  1  0
 22 23  1  0
 23 24  1  0
 22 25  1  0
 25 26  1  0
 25 27  2  0
 16 28  2  0
 28 29  1  0
 29 30  1  0
 29 31  2  0
 31  2  1  0
 12  7  1  0
 31 14  1  0
 24 19  1  0
M  END
$$$$
