
     RDKit          3D

 31 34  0  0  0  0  0  0  0  0999 V2000
    1.5244   -7.9026  -16.0754 O   0  0  0  0  0  0  0  0  0  0  0  0
    0.6589   -7.0093  -15.8916 C   0  0  0  0  0  0  0  0  0  0  0  0
    0.0172   -6.8518  -14.7243 N   0  0  0  0  0  0  0  0  0  0  0  0
   -0.9195   -5.8783  -14.5395 C   0  0  0  0  0  0  0  0  0  0  0  0
   -1.5753   -5.7858  -13.2107 C   0  0  0  0  0  0  0  0  0  0  0  0
   -1.9471   -7.3819  -12.4833 S   0  0  0  0  0  0  0  0  0  0  0  0
   -3.7254   -7.6768  -12.3401 C   0  0  0  0  0  0  0  0  0  0  0  0
   -3.9161   -9.1587  -12.0058 C   0  0  0  0  0  0  0  0  0  0  0  0
   -4.0118   -9.3580  -10.5087 C   0  0  0  0  0  0  0  0  0  0  0  0
   -3.1500   -8.5235   -9.8060 O   0  0  0  0  0  0  0  0  0  0  0  0
   -3.4122   -7.1829   -9.9796 C   0  0  0  0  0  0  0  0  0  0  0  0
   -4.3225   -6.9074  -11.1647 C   0  0  0  0  0  0  0  0  0  0  0  0
   -1.2060   -5.0589  -15.5488 N   0  0  0  0  0  0  0  0  0  0  0  0
   -0.5827   -5.1867  -16.7342 C   0  0  0  0  0  0  0  0  0  0  0  0
   -0.8587   -4.3504  -17.8025 C   0  0  0  0  0  0  0  0  0  0  0  0
   -0.2320   -4.4613  -19.0306 C   0  0  0  0  0  0  0  0  0  0  0  0
   -0.4987   -3.6392  -20.0908 O   0  0  0  0  0  0  0  0  0  0  0  0
    0.4201   -2.8151  -20.7370 C   0  0  0  0  0  0  0  0  0  0  0  0
   -0.2153   -2.0324  -21.8692 C   0  0  0  0  0  0  0  0  0  0  0  0
   -0.8890   -0.8222  -21.2591 C   0  0  0  0  0  0  0  0  0  0  0  0
   -1.4698    0.0574  -22.3462 C   0  0  0  0  0  0  0  0  0  0  0  0
   -0.3506    0.4788  -23.1924 N   0  0  0  0  0  0  0  0  0  0  0  0
    0.9363   -0.0891  -22.9133 C   0  0  0  0  0  0  0  0  0  0  0  0
    0.8893   -1.5937  -22.7940 C   0  0  0  0  0  0  0  0  0  0  0  0
   -0.5967    1.4108  -24.2247 C   0  0  0  0  0  0  0  0  0  0  0  0
   -1.7458    2.3457  -24.1324 C   0  0  0  0  0  0  0  0  0  0  0  0
    0.1364    1.4737  -25.2319 O   0  0  0  0  0  0  0  0  0  0  0  0
    0.7204   -5.4490  -19.2230 C   0  0  0  0  0  0  0  0  0  0  0  0
    1.0124   -6.2940  -18.1739 C   0  0  0  0  0  0  0  0  0  0  0  0
    1.9461   -7.2826  -18.3203 F   0  0  0  0  0  0  0  0  0  0  0  0
    0.3707   -6.1677  -16.9424 C   0  0  0  0  0  0  0  0  0  0  0  0
  1  2  2  0
  2  3  1  0
  3  4  1  0
  4  5  1  0
  5  6  1  0
  6  7  1  0
  7  8  1  0
  8  9  1  0
  9 10  1  0
 10 11  1  0
 11 12  1  0
  4 13  2  0
 13 14  1  0
 14 15  2  0
 15 16  1  0
 16 17  1  0
 17 18  1  0
 18 19  1  0
 19 20  1  0
 20 21  1  0
 21 22  1  0
 22 23  1  0
 23 24  1  0
 22 25  1  0
 25 26  1  0
 25 27  2  0
 16 28  2  0
 28 29  1  0
 29 30  1  0
 29 31  2  0
 31  2  1  0
 12  7  1  0
 31 14  1  0
 24 19  1  0
M  END
$$$$
