
     RDKit          3D

 31 34  0  0  0  0  0  0  0  0999 V2000
    1.6571   -7.4696  -16.0045 O   0  0  0  0  0  0  0  0  0  0  0  0
    1.0297   -6.6299  -16.6987 C   0  0  0  0  0  0  0  0  0  0  0  0
    1.2465   -6.4699  -18.0128 N   0  0  0  0  0  0  0  0  0  0  0  0
    0.5582   -5.5548  -18.7532 C   0  0  0  0  0  0  0  0  0  0  0  0
    0.8715   -5.4525  -20.2009 C   0  0  0  0  0  0  0  0  0  0  0  0
    0.1435   -4.0171  -20.9911 S   0  0  0  0  0  0  0  0  0  0  0  0
    1.1999   -2.5544  -20.8714 C   0  0  0  0  0  0  0  0  0  0  0  0
    2.1710   -2.5957  -22.0544 C   0  0  0  0  0  0  0  0  0  0  0  0
    1.6230   -1.8014  -23.2203 C   0  0  0  0  0  0  0  0  0  0  0  0
    0.2470   -1.9435  -23.3591 O   0  0  0  0  0  0  0  0  0  0  0  0
   -0.4699   -1.4826  -22.2775 C   0  0  0  0  0  0  0  0  0  0  0  0
    0.3919   -1.2709  -21.0442 C   0  0  0  0  0  0  0  0  0  0  0  0
   -0.3573   -4.7969  -18.1534 N   0  0  0  0  0  0  0  0  0  0  0  0
   -0.6019   -4.9292  -16.8371 C   0  0  0  0  0  0  0  0  0  0  0  0
   -1.5471   -4.1560  -16.1850 C   0  0  0  0  0  0  0  0  0  0  0  0
   -1.8170   -4.2728  -14.8334 C   0  0  0  0  0  0  0  0  0  0  0  0
   -2.7492   -3.5130  -14.1816 O   0  0  0  0  0  0  0  0  0  0  0  0
   -2.7156   -3.1554  -12.8356 C   0  0  0  0  0  0  0  0  0  0  0  0
   -2.3472   -1.6975  -12.6431 C   0  0  0  0  0  0  0  0  0  0  0  0
   -2.8191   -0.9467  -13.8695 C   0  0  0  0  0  0  0  0  0  0  0  0
   -2.5645    0.5368  -13.7055 C   0  0  0  0  0  0  0  0  0  0  0  0
   -3.3232    0.9688  -12.5292 N   0  0  0  0  0  0  0  0  0  0  0  0
   -3.9892   -0.0462  -11.7658 C   0  0  0  0  0  0  0  0  0  0  0  0
   -3.0788   -1.2013  -11.4239 C   0  0  0  0  0  0  0  0  0  0  0  0
   -3.3576    2.3453  -12.2146 C   0  0  0  0  0  0  0  0  0  0  0  0
   -2.9026    3.3524  -13.2054 C   0  0  0  0  0  0  0  0  0  0  0  0
   -3.7667    2.7490  -11.1075 O   0  0  0  0  0  0  0  0  0  0  0  0
   -1.1201   -5.2012  -14.0770 C   0  0  0  0  0  0  0  0  0  0  0  0
   -0.1737   -5.9828  -14.7042 C   0  0  0  0  0  0  0  0  0  0  0  0
    0.5371   -6.9119  -13.9954 F   0  0  0  0  0  0  0  0  0  0  0  0
    0.0854   -5.8515  -16.0680 C   0  0  0  0  0  0  0  0  0  0  0  0
  1  2  2  0
  2  3  1  0
  3  4  1  0
  4  5  1  0
  5  6  1  0
  6  7  1  0
  7  8  1  0
  8  9  1  0
  9 10  1  0
 10 11  1  0
 11 12  1  0
  4 13  2  0
 13 14  1  0
 14 15  2  0
 15 16  1  0
 16 17  1  0
 17 18  1  0
 18 19  1  0
 19 20  1  0
 20 21  1  0
 21 22  1  0
 22 23  1  0
 23 24  1  0
 22 25  1  0
 25 26  1  0
 25 27  2  0
 16 28  2  0
 28 29  1  0
 29 30  1  0
 29 31  2  0
 31  2  1  0
 12  7  1  0
 31 14  1  0
 24 19  1  0
M  END
$$$$
