
     RDKit          3D

 31 34  0  0  0  0  0  0  0  0999 V2000
    1.2578   -7.7674  -16.2635 O   0  0  0  0  0  0  0  0  0  0  0  0
    0.3564   -6.9254  -16.0201 C   0  0  0  0  0  0  0  0  0  0  0  0
   -0.3643   -6.9426  -14.8889 N   0  0  0  0  0  0  0  0  0  0  0  0
   -1.3391   -6.0226  -14.6383 C   0  0  0  0  0  0  0  0  0  0  0  0
   -2.0825   -6.1267  -13.3573 C   0  0  0  0  0  0  0  0  0  0  0  0
   -2.4012   -4.5408  -12.5839 S   0  0  0  0  0  0  0  0  0  0  0  0
   -0.9650   -3.9124  -11.6825 C   0  0  0  0  0  0  0  0  0  0  0  0
   -1.3040   -2.4936  -11.2175 C   0  0  0  0  0  0  0  0  0  0  0  0
   -1.8675   -2.5147   -9.8130 C   0  0  0  0  0  0  0  0  0  0  0  0
   -2.6972   -3.6078   -9.5906 O   0  0  0  0  0  0  0  0  0  0  0  0
   -2.0588   -4.8220   -9.7101 C   0  0  0  0  0  0  0  0  0  0  0  0
   -0.7139   -4.7161  -10.4094 C   0  0  0  0  0  0  0  0  0  0  0  0
   -1.5831   -5.0783  -15.5444 N   0  0  0  0  0  0  0  0  0  0  0  0
   -0.8804   -5.0296  -16.6906 C   0  0  0  0  0  0  0  0  0  0  0  0
   -1.1106   -4.0602  -17.6519 C   0  0  0  0  0  0  0  0  0  0  0  0
   -0.4023   -3.9888  -18.8378 C   0  0  0  0  0  0  0  0  0  0  0  0
   -0.6232   -3.0344  -19.7925 O   0  0  0  0  0  0  0  0  0  0  0  0
   -0.3280   -3.1517  -21.1489 C   0  0  0  0  0  0  0  0  0  0  0  0
    0.1839   -1.8505  -21.7346 C   0  0  0  0  0  0  0  0  0  0  0  0
   -0.1340   -1.8653  -23.2142 C   0  0  0  0  0  0  0  0  0  0  0  0
    0.2695   -0.5514  -23.8496 C   0  0  0  0  0  0  0  0  0  0  0  0
   -0.5037    0.4973  -23.1800 N   0  0  0  0  0  0  0  0  0  0  0  0
   -1.3175    0.1061  -22.0660 C   0  0  0  0  0  0  0  0  0  0  0  0
   -0.5579   -0.7262  -21.0609 C   0  0  0  0  0  0  0  0  0  0  0  0
   -0.4073    1.8212  -23.6627 C   0  0  0  0  0  0  0  0  0  0  0  0
   -1.0650    2.9346  -22.9342 C   0  0  0  0  0  0  0  0  0  0  0  0
    0.2262    2.0891  -24.7033 O   0  0  0  0  0  0  0  0  0  0  0  0
    0.5892   -4.9214  -19.0968 C   0  0  0  0  0  0  0  0  0  0  0  0
    0.8367   -5.8965  -18.1545 C   0  0  0  0  0  0  0  0  0  0  0  0
    1.8065   -6.8367  -18.3694 F   0  0  0  0  0  0  0  0  0  0  0  0
    0.1127   -5.9534  -16.9641 C   0  0  0  0  0  0  0  0  0  0  0  0
  1  2  2  0
  2  3  1  0
  3  4  1  0
  4  5  1  0
  5  6  1  0
  6  7  1  0
  7  8  1  0
  8  9  1  0
  9 10  1  0
 10 11  1  0
 11 12  1  0
  4 13  2  0
 13 14  1  0
 14 15  2  0
 15 16  1  0
 16 17  1  0
 17 18  1  0
 18 19  1  0
 19 20  1  0
 20 21  1  0
 21 22  1  0
 22 23  1  0
 23 24  1  0
 22 25  1  0
 25 26  1  0
 25 27  2  0
 16 28  2  0
 28 29  1  0
 29 30  1  0
 29 31  2  0
 31  2  1  0
 12  7  1  0
 31 14  1  0
 24 19  1  0
M  END
$$$$
