
     RDKit          3D

 31 34  0  0  0  0  0  0  0  0999 V2000
    1.3278   -7.7140  -16.0008 O   0  0  0  0  0  0  0  0  0  0  0  0
    0.5023   -6.8007  -15.7452 C   0  0  0  0  0  0  0  0  0  0  0  0
   -0.1629   -6.7302  -14.5825 N   0  0  0  0  0  0  0  0  0  0  0  0
   -1.0556   -5.7337  -14.3192 C   0  0  0  0  0  0  0  0  0  0  0  0
   -1.7424   -5.7435  -13.0029 C   0  0  0  0  0  0  0  0  0  0  0  0
   -1.8651   -7.3761  -12.2718 S   0  0  0  0  0  0  0  0  0  0  0  0
   -3.5718   -7.9682  -12.1899 C   0  0  0  0  0  0  0  0  0  0  0  0
   -3.5190   -9.4906  -12.0367 C   0  0  0  0  0  0  0  0  0  0  0  0
   -3.5735   -9.8802  -10.5753 C   0  0  0  0  0  0  0  0  0  0  0  0
   -2.8541   -9.0078   -9.7664 O   0  0  0  0  0  0  0  0  0  0  0  0
   -3.3302   -7.7158   -9.7832 C   0  0  0  0  0  0  0  0  0  0  0  0
   -4.2791   -7.4508  -10.9401 C   0  0  0  0  0  0  0  0  0  0  0  0
   -1.2737   -4.8019  -15.2447 N   0  0  0  0  0  0  0  0  0  0  0  0
   -0.6249   -4.8402  -16.4227 C   0  0  0  0  0  0  0  0  0  0  0  0
   -0.8302   -3.8862  -17.4049 C   0  0  0  0  0  0  0  0  0  0  0  0
   -0.1761   -3.9034  -18.6235 C   0  0  0  0  0  0  0  0  0  0  0  0
   -0.3729   -2.9648  -19.5989 O   0  0  0  0  0  0  0  0  0  0  0  0
   -0.5865   -3.2239  -20.9509 C   0  0  0  0  0  0  0  0  0  0  0  0
   -0.8150   -1.9528  -21.7448 C   0  0  0  0  0  0  0  0  0  0  0  0
    0.4963   -1.5939  -22.4099 C   0  0  0  0  0  0  0  0  0  0  0  0
    0.3186   -0.3794  -23.2966 C   0  0  0  0  0  0  0  0  0  0  0  0
   -0.6772   -0.7375  -24.3097 N   0  0  0  0  0  0  0  0  0  0  0  0
   -1.3180   -2.0139  -24.1811 C   0  0  0  0  0  0  0  0  0  0  0  0
   -1.8566   -2.2514  -22.7906 C   0  0  0  0  0  0  0  0  0  0  0  0
   -0.9484    0.1828  -25.3462 C   0  0  0  0  0  0  0  0  0  0  0  0
   -0.0932    1.3825  -25.5266 C   0  0  0  0  0  0  0  0  0  0  0  0
   -1.9038    0.0153  -26.1306 O   0  0  0  0  0  0  0  0  0  0  0  0
    0.7318   -4.9141  -18.8955 C   0  0  0  0  0  0  0  0  0  0  0  0
    0.9530   -5.8756  -17.9329 C   0  0  0  0  0  0  0  0  0  0  0  0
    1.8410   -6.8909  -18.1597 F   0  0  0  0  0  0  0  0  0  0  0  0
    0.2846   -5.8426  -16.7096 C   0  0  0  0  0  0  0  0  0  0  0  0
  1  2  2  0
  2  3  1  0
  3  4  1  0
  4  5  1  0
  5  6  1  0
  6  7  1  0
  7  8  1  0
  8  9  1  0
  9 10  1  0
 10 11  1  0
 11 12  1  0
  4 13  2  0
 13 14  1  0
 14 15  2  0
 15 16  1  0
 16 17  1  0
 17 18  1  0
 18 19  1  0
 19 20  1  0
 20 21  1  0
 21 22  1  0
 22 23  1  0
 23 24  1  0
 22 25  1  0
 25 26  1  0
 25 27  2  0
 16 28  2  0
 28 29  1  0
 29 30  1  0
 29 31  2  0
 31  2  1  0
 12  7  1  0
 31 14  1  0
 24 19  1  0
M  END
$$$$
