
     RDKit          3D

 31 34  0  0  0  0  0  0  0  0999 V2000
    1.7930   -7.5102  -16.2278 O   0  0  0  0  0  0  0  0  0  0  0  0
    0.9864   -6.7391  -16.8070 C   0  0  0  0  0  0  0  0  0  0  0  0
    1.0702   -6.4528  -18.1147 N   0  0  0  0  0  0  0  0  0  0  0  0
    0.1880   -5.6143  -18.7296 C   0  0  0  0  0  0  0  0  0  0  0  0
    0.3655   -5.3592  -20.1814 C   0  0  0  0  0  0  0  0  0  0  0  0
    1.3732   -3.9195  -20.5372 S   0  0  0  0  0  0  0  0  0  0  0  0
    0.6239   -2.3878  -19.9351 C   0  0  0  0  0  0  0  0  0  0  0  0
    1.4917   -1.2293  -20.4341 C   0  0  0  0  0  0  0  0  0  0  0  0
    0.9554   -0.6881  -21.7417 C   0  0  0  0  0  0  0  0  0  0  0  0
    0.4736   -1.6922  -22.5739 O   0  0  0  0  0  0  0  0  0  0  0  0
   -0.5883   -2.3901  -22.0433 C   0  0  0  0  0  0  0  0  0  0  0  0
   -0.7556   -2.1661  -20.5497 C   0  0  0  0  0  0  0  0  0  0  0  0
   -0.7868   -5.0630  -18.0097 N   0  0  0  0  0  0  0  0  0  0  0  0
   -0.9022   -5.3270  -16.6955 C   0  0  0  0  0  0  0  0  0  0  0  0
   -1.9046   -4.7693  -15.9203 C   0  0  0  0  0  0  0  0  0  0  0  0
   -2.0447   -5.0246  -14.5681 C   0  0  0  0  0  0  0  0  0  0  0  0
   -3.0321   -4.4781  -13.7952 O   0  0  0  0  0  0  0  0  0  0  0  0
   -3.0723   -3.1662  -13.3283 C   0  0  0  0  0  0  0  0  0  0  0  0
   -2.3745   -3.0165  -11.9908 C   0  0  0  0  0  0  0  0  0  0  0  0
   -1.9833   -1.5616  -11.8459 C   0  0  0  0  0  0  0  0  0  0  0  0
   -1.3596   -1.3199  -10.4875 C   0  0  0  0  0  0  0  0  0  0  0  0
   -2.3725   -1.6697   -9.4887 N   0  0  0  0  0  0  0  0  0  0  0  0
   -3.5968   -2.2442   -9.9655 C   0  0  0  0  0  0  0  0  0  0  0  0
   -3.3627   -3.3920  -10.9183 C   0  0  0  0  0  0  0  0  0  0  0  0
   -2.0918   -1.4245   -8.1264 C   0  0  0  0  0  0  0  0  0  0  0  0
   -3.0829   -1.7813   -7.0806 C   0  0  0  0  0  0  0  0  0  0  0  0
   -1.0151   -0.9068   -7.7675 O   0  0  0  0  0  0  0  0  0  0  0  0
   -1.1505   -5.8759  -13.9391 C   0  0  0  0  0  0  0  0  0  0  0  0
   -0.1437   -6.4434  -14.6903 C   0  0  0  0  0  0  0  0  0  0  0  0
    0.7604   -7.2896  -14.1096 F   0  0  0  0  0  0  0  0  0  0  0  0
   -0.0176   -6.1747  -16.0527 C   0  0  0  0  0  0  0  0  0  0  0  0
  1  2  2  0
  2  3  1  0
  3  4  1  0
  4  5  1  0
  5  6  1  0
  6  7  1  0
  7  8  1  0
  8  9  1  0
  9 10  1  0
 10 11  1  0
 11 12  1  0
  4 13  2  0
 13 14  1  0
 14 15  2  0
 15 16  1  0
 16 17  1  0
 17 18  1  0
 18 19  1  0
 19 20  1  0
 20 21  1  0
 21 22  1  0
 22 23  1  0
 23 24  1  0
 22 25  1  0
 25 26  1  0
 25 27  2  0
 16 28  2  0
 28 29  1  0
 29 30  1  0
 29 31  2  0
 31  2  1  0
 12  7  1  0
 31 14  1  0
 24 19  1  0
M  END
$$$$
