
     RDKit          3D

 31 34  0  0  0  0  0  0  0  0999 V2000
    1.2269   -7.7305  -16.2723 O   0  0  0  0  0  0  0  0  0  0  0  0
    0.4042   -6.8054  -16.0528 C   0  0  0  0  0  0  0  0  0  0  0  0
   -0.3350   -6.7437  -14.9352 N   0  0  0  0  0  0  0  0  0  0  0  0
   -1.2236   -5.7340  -14.7106 C   0  0  0  0  0  0  0  0  0  0  0  0
   -1.9962   -5.7552  -13.4429 C   0  0  0  0  0  0  0  0  0  0  0  0
   -1.2196   -4.8328  -12.1159 S   0  0  0  0  0  0  0  0  0  0  0  0
   -2.2658   -4.7287  -10.6446 C   0  0  0  0  0  0  0  0  0  0  0  0
   -1.4137   -5.1605   -9.4481 C   0  0  0  0  0  0  0  0  0  0  0  0
   -0.7822   -3.9567   -8.7829 C   0  0  0  0  0  0  0  0  0  0  0  0
   -0.3742   -2.9961   -9.7014 O   0  0  0  0  0  0  0  0  0  0  0  0
   -1.4059   -2.4630  -10.4414 C   0  0  0  0  0  0  0  0  0  0  0  0
   -2.6796   -3.2874  -10.3591 C   0  0  0  0  0  0  0  0  0  0  0  0
   -1.3616   -4.7801  -15.6289 N   0  0  0  0  0  0  0  0  0  0  0  0
   -0.6371   -4.8090  -16.7621 C   0  0  0  0  0  0  0  0  0  0  0  0
   -0.7581   -3.8320  -17.7356 C   0  0  0  0  0  0  0  0  0  0  0  0
   -0.0251   -3.8391  -18.9086 C   0  0  0  0  0  0  0  0  0  0  0  0
   -0.1384   -2.8778  -19.8751 O   0  0  0  0  0  0  0  0  0  0  0  0
   -0.7458   -3.0370  -21.1186 C   0  0  0  0  0  0  0  0  0  0  0  0
   -0.8856   -1.7202  -21.8565 C   0  0  0  0  0  0  0  0  0  0  0  0
    0.4964   -1.1121  -21.9610 C   0  0  0  0  0  0  0  0  0  0  0  0
    0.4459    0.1671  -22.7696 C   0  0  0  0  0  0  0  0  0  0  0  0
   -0.0462   -0.1936  -24.1015 N   0  0  0  0  0  0  0  0  0  0  0  0
   -0.4661   -1.5498  -24.3035 C   0  0  0  0  0  0  0  0  0  0  0  0
   -1.4182   -2.0245  -23.2319 C   0  0  0  0  0  0  0  0  0  0  0  0
   -0.0795    0.8021  -25.1027 C   0  0  0  0  0  0  0  0  0  0  0  0
    0.5505    2.1250  -24.8658 C   0  0  0  0  0  0  0  0  0  0  0  0
   -0.6333    0.6001  -26.2020 O   0  0  0  0  0  0  0  0  0  0  0  0
    0.8789   -4.8630  -19.1411 C   0  0  0  0  0  0  0  0  0  0  0  0
    1.0170   -5.8474  -18.1863 C   0  0  0  0  0  0  0  0  0  0  0  0
    1.8981   -6.8765  -18.3751 F   0  0  0  0  0  0  0  0  0  0  0  0
    0.2698   -5.8244  -17.0093 C   0  0  0  0  0  0  0  0  0  0  0  0
  1  2  2  0
  2  3  1  0
  3  4  1  0
  4  5  1  0
  5  6  1  0
  6  7  1  0
  7  8  1  0
  8  9  1  0
  9 10  1  0
 10 11  1  0
 11 12  1  0
  4 13  2  0
 13 14  1  0
 14 15  2  0
 15 16  1  0
 16 17  1  0
 17 18  1  0
 18 19  1  0
 19 20  1  0
 20 21  1  0
 21 22  1  0
 22 23  1  0
 23 24  1  0
 22 25  1  0
 25 26  1  0
 25 27  2  0
 16 28  2  0
 28 29  1  0
 29 30  1  0
 29 31  2  0
 31  2  1  0
 12  7  1  0
 31 14  1  0
 24 19  1  0
M  END
$$$$
