
     RDKit          3D

 31 34  0  0  0  0  0  0  0  0999 V2000
    1.4038   -7.6374  -16.0744 O   0  0  0  0  0  0  0  0  0  0  0  0
    0.7349   -6.7922  -16.7217 C   0  0  0  0  0  0  0  0  0  0  0  0
    0.8954   -6.5967  -18.0390 N   0  0  0  0  0  0  0  0  0  0  0  0
    0.1626   -5.6762  -18.7282 C   0  0  0  0  0  0  0  0  0  0  0  0
    0.4150   -5.5335  -20.1843 C   0  0  0  0  0  0  0  0  0  0  0  0
    1.3408   -4.0579  -20.6090 S   0  0  0  0  0  0  0  0  0  0  0  0
    0.3419   -2.5561  -20.4793 C   0  0  0  0  0  0  0  0  0  0  0  0
    1.2556   -1.3716  -20.8050 C   0  0  0  0  0  0  0  0  0  0  0  0
    1.1595   -1.0135  -22.2723 C   0  0  0  0  0  0  0  0  0  0  0  0
    1.0474   -2.1352  -23.0860 O   0  0  0  0  0  0  0  0  0  0  0  0
   -0.0871   -2.8794  -22.8511 C   0  0  0  0  0  0  0  0  0  0  0  0
   -0.7608   -2.5304  -21.5346 C   0  0  0  0  0  0  0  0  0  0  0  0
   -0.7400   -4.9490  -18.0734 N   0  0  0  0  0  0  0  0  0  0  0  0
   -0.9287   -5.1174  -16.7520 C   0  0  0  0  0  0  0  0  0  0  0  0
   -1.8592   -4.3767  -16.0433 C   0  0  0  0  0  0  0  0  0  0  0  0
   -2.0719   -4.5308  -14.6853 C   0  0  0  0  0  0  0  0  0  0  0  0
   -2.9892   -3.8034  -13.9778 O   0  0  0  0  0  0  0  0  0  0  0  0
   -2.8437   -3.3601  -12.6652 C   0  0  0  0  0  0  0  0  0  0  0  0
   -2.4078   -1.9096  -12.5994 C   0  0  0  0  0  0  0  0  0  0  0  0
   -3.5234   -1.0755  -13.1910 C   0  0  0  0  0  0  0  0  0  0  0  0
   -3.1940    0.3978  -13.0746 C   0  0  0  0  0  0  0  0  0  0  0  0
   -3.0531    0.6882  -11.6457 N   0  0  0  0  0  0  0  0  0  0  0  0
   -3.1225   -0.4201  -10.7384 C   0  0  0  0  0  0  0  0  0  0  0  0
   -2.2179   -1.5578  -11.1474 C   0  0  0  0  0  0  0  0  0  0  0  0
   -2.8594    2.0283  -11.2438 C   0  0  0  0  0  0  0  0  0  0  0  0
   -2.5566    2.3498   -9.8268 C   0  0  0  0  0  0  0  0  0  0  0  0
   -2.9365    2.9691  -12.0593 O   0  0  0  0  0  0  0  0  0  0  0  0
   -1.3296   -5.4649  -13.9808 C   0  0  0  0  0  0  0  0  0  0  0  0
   -0.3968   -6.2145  -14.6649 C   0  0  0  0  0  0  0  0  0  0  0  0
    0.3574   -7.1479  -14.0086 F   0  0  0  0  0  0  0  0  0  0  0  0
   -0.1956   -6.0458  -16.0343 C   0  0  0  0  0  0  0  0  0  0  0  0
  1  2  2  0
  2  3  1  0
  3  4  1  0
  4  5  1  0
  5  6  1  0
  6  7  1  0
  7  8  1  0
  8  9  1  0
  9 10  1  0
 10 11  1  0
 11 12  1  0
  4 13  2  0
 13 14  1  0
 14 15  2  0
 15 16  1  0
 16 17  1  0
 17 18  1  0
 18 19  1  0
 19 20  1  0
 20 21  1  0
 21 22  1  0
 22 23  1  0
 23 24  1  0
 22 25  1  0
 25 26  1  0
 25 27  2  0
 16 28  2  0
 28 29  1  0
 29 30  1  0
 29 31  2  0
 31  2  1  0
 12  7  1  0
 31 14  1  0
 24 19  1  0
M  END
$$$$
