
     RDKit          3D

 31 34  0  0  0  0  0  0  0  0999 V2000
    1.4044   -8.1228  -16.3526 O   0  0  0  0  0  0  0  0  0  0  0  0
    0.8584   -7.0600  -16.7440 C   0  0  0  0  0  0  0  0  0  0  0  0
    1.1482   -6.4883  -17.9223 N   0  0  0  0  0  0  0  0  0  0  0  0
    0.5479   -5.3352  -18.3339 C   0  0  0  0  0  0  0  0  0  0  0  0
    0.9375   -4.7800  -19.6546 C   0  0  0  0  0  0  0  0  0  0  0  0
   -0.3816   -4.8271  -20.8682 S   0  0  0  0  0  0  0  0  0  0  0  0
   -1.8239   -3.8640  -20.3562 C   0  0  0  0  0  0  0  0  0  0  0  0
   -1.7153   -2.4908  -21.0246 C   0  0  0  0  0  0  0  0  0  0  0  0
   -2.4761   -2.4744  -22.3327 C   0  0  0  0  0  0  0  0  0  0  0  0
   -2.3596   -3.6718  -23.0294 O   0  0  0  0  0  0  0  0  0  0  0  0
   -2.8777   -4.7567  -22.3579 C   0  0  0  0  0  0  0  0  0  0  0  0
   -3.1175   -4.4794  -20.8833 C   0  0  0  0  0  0  0  0  0  0  0  0
   -0.3536   -4.7591  -17.5417 N   0  0  0  0  0  0  0  0  0  0  0  0
   -0.6698   -5.3036  -16.3528 C   0  0  0  0  0  0  0  0  0  0  0  0
   -1.6029   -4.7284  -15.5071 C   0  0  0  0  0  0  0  0  0  0  0  0
   -1.9451   -5.2683  -14.2805 C   0  0  0  0  0  0  0  0  0  0  0  0
   -2.8659   -4.7066  -13.4392 O   0  0  0  0  0  0  0  0  0  0  0  0
   -2.8861   -4.8282  -12.0516 C   0  0  0  0  0  0  0  0  0  0  0  0
   -2.1088   -3.7183  -11.3717 C   0  0  0  0  0  0  0  0  0  0  0  0
   -3.1168   -2.7815  -10.7416 C   0  0  0  0  0  0  0  0  0  0  0  0
   -2.4061   -1.6936   -9.9644 C   0  0  0  0  0  0  0  0  0  0  0  0
   -1.6215   -2.3614   -8.9230 N   0  0  0  0  0  0  0  0  0  0  0  0
   -1.5908   -3.7950   -8.9389 C   0  0  0  0  0  0  0  0  0  0  0  0
   -1.2562   -4.3497  -10.3029 C   0  0  0  0  0  0  0  0  0  0  0  0
   -0.9461   -1.5665   -7.9707 C   0  0  0  0  0  0  0  0  0  0  0  0
   -1.3393   -0.1505   -7.7618 C   0  0  0  0  0  0  0  0  0  0  0  0
   -0.0105   -2.0267   -7.2860 O   0  0  0  0  0  0  0  0  0  0  0  0
   -1.3377   -6.4398  -13.8581 C   0  0  0  0  0  0  0  0  0  0  0  0
   -0.4052   -7.0312  -14.6831 C   0  0  0  0  0  0  0  0  0  0  0  0
    0.2183   -8.1885  -14.3054 F   0  0  0  0  0  0  0  0  0  0  0  0
   -0.0723   -6.4730  -15.9167 C   0  0  0  0  0  0  0  0  0  0  0  0
  1  2  2  0
  2  3  1  0
  3  4  1  0
  4  5  1  0
  5  6  1  0
  6  7  1  0
  7  8  1  0
  8  9  1  0
  9 10  1  0
 10 11  1  0
 11 12  1  0
  4 13  2  0
 13 14  1  0
 14 15  2  0
 15 16  1  0
 16 17  1  0
 17 18  1  0
 18 19  1  0
 19 20  1  0
 20 21  1  0
 21 22  1  0
 22 23  1  0
 23 24  1  0
 22 25  1  0
 25 26  1  0
 25 27  2  0
 16 28  2  0
 28 29  1  0
 29 30  1  0
 29 31  2  0
 31  2  1  0
 12  7  1  0
 31 14  1  0
 24 19  1  0
M  END
$$$$
