
     RDKit          3D

 31 34  0  0  0  0  0  0  0  0999 V2000
    1.8448   -7.6284  -16.5450 O   0  0  0  0  0  0  0  0  0  0  0  0
    0.9688   -6.8152  -16.9350 C   0  0  0  0  0  0  0  0  0  0  0  0
    0.8783   -6.4037  -18.2085 N   0  0  0  0  0  0  0  0  0  0  0  0
   -0.0774   -5.5210  -18.6172 C   0  0  0  0  0  0  0  0  0  0  0  0
   -0.0942   -5.1257  -20.0482 C   0  0  0  0  0  0  0  0  0  0  0  0
    0.9986   -3.7550  -20.4250 S   0  0  0  0  0  0  0  0  0  0  0  0
    0.3498   -2.1737  -19.8346 C   0  0  0  0  0  0  0  0  0  0  0  0
    1.3107   -1.0808  -20.3104 C   0  0  0  0  0  0  0  0  0  0  0  0
    0.8448   -0.4997  -21.6278 C   0  0  0  0  0  0  0  0  0  0  0  0
    0.3097   -1.4646  -22.4738 O   0  0  0  0  0  0  0  0  0  0  0  0
   -0.8119   -2.0839  -21.9692 C   0  0  0  0  0  0  0  0  0  0  0  0
   -0.9957   -1.8507  -20.4790 C   0  0  0  0  0  0  0  0  0  0  0  0
   -0.9474   -5.0532  -17.7247 N   0  0  0  0  0  0  0  0  0  0  0  0
   -0.8873   -5.4435  -16.4385 C   0  0  0  0  0  0  0  0  0  0  0  0
   -1.7773   -4.9750  -15.4872 C   0  0  0  0  0  0  0  0  0  0  0  0
   -1.7366   -5.3605  -14.1594 C   0  0  0  0  0  0  0  0  0  0  0  0
   -2.6121   -4.9027  -13.2134 O   0  0  0  0  0  0  0  0  0  0  0  0
   -2.7264   -3.5853  -12.7753 C   0  0  0  0  0  0  0  0  0  0  0  0
   -2.8493   -3.4957  -11.2670 C   0  0  0  0  0  0  0  0  0  0  0  0
   -1.4608   -3.6668  -10.6897 C   0  0  0  0  0  0  0  0  0  0  0  0
   -1.4945   -3.4971   -9.1855 C   0  0  0  0  0  0  0  0  0  0  0  0
   -1.9839   -2.1414   -8.9236 N   0  0  0  0  0  0  0  0  0  0  0  0
   -2.4166   -1.3681  -10.0511 C   0  0  0  0  0  0  0  0  0  0  0  0
   -3.3785   -2.1254  -10.9349 C   0  0  0  0  0  0  0  0  0  0  0  0
   -2.0024   -1.6748   -7.5906 C   0  0  0  0  0  0  0  0  0  0  0  0
   -2.5570   -0.3353   -7.2727 C   0  0  0  0  0  0  0  0  0  0  0  0
   -1.5581   -2.3676   -6.6532 O   0  0  0  0  0  0  0  0  0  0  0  0
   -0.7673   -6.2572  -13.7396 C   0  0  0  0  0  0  0  0  0  0  0  0
    0.1303   -6.7377  -14.6687 C   0  0  0  0  0  0  0  0  0  0  0  0
    1.1031   -7.6246  -14.2974 F   0  0  0  0  0  0  0  0  0  0  0  0
    0.0744   -6.3381  -16.0034 C   0  0  0  0  0  0  0  0  0  0  0  0
  1  2  2  0
  2  3  1  0
  3  4  1  0
  4  5  1  0
  5  6  1  0
  6  7  1  0
  7  8  1  0
  8  9  1  0
  9 10  1  0
 10 11  1  0
 11 12  1  0
  4 13  2  0
 13 14  1  0
 14 15  2  0
 15 16  1  0
 16 17  1  0
 17 18  1  0
 18 19  1  0
 19 20  1  0
 20 21  1  0
 21 22  1  0
 22 23  1  0
 23 24  1  0
 22 25  1  0
 25 26  1  0
 25 27  2  0
 16 28  2  0
 28 29  1  0
 29 30  1  0
 29 31  2  0
 31  2  1  0
 12  7  1  0
 31 14  1  0
 24 19  1  0
M  END
$$$$
