
     RDKit          3D

 31 34  0  0  0  0  0  0  0  0999 V2000
    1.4448   -7.8910  -16.0227 O   0  0  0  0  0  0  0  0  0  0  0  0
    0.5789   -6.9923  -15.8699 C   0  0  0  0  0  0  0  0  0  0  0  0
   -0.1229   -6.8480  -14.7359 N   0  0  0  0  0  0  0  0  0  0  0  0
   -1.0592   -5.8683  -14.5845 C   0  0  0  0  0  0  0  0  0  0  0  0
   -1.7844   -5.7917  -13.2912 C   0  0  0  0  0  0  0  0  0  0  0  0
   -1.9809   -7.3814  -12.4854 S   0  0  0  0  0  0  0  0  0  0  0  0
   -3.7032   -7.9317  -12.4573 C   0  0  0  0  0  0  0  0  0  0  0  0
   -3.6998   -9.4215  -12.1045 C   0  0  0  0  0  0  0  0  0  0  0  0
   -3.8710   -9.6153  -10.6134 C   0  0  0  0  0  0  0  0  0  0  0  0
   -3.1913   -8.6555   -9.8721 O   0  0  0  0  0  0  0  0  0  0  0  0
   -3.6325   -7.3697  -10.0923 C   0  0  0  0  0  0  0  0  0  0  0  0
   -4.4871   -7.2443  -11.3424 C   0  0  0  0  0  0  0  0  0  0  0  0
   -1.2837   -5.0291  -15.5932 N   0  0  0  0  0  0  0  0  0  0  0  0
   -0.5990   -5.1432  -16.7457 C   0  0  0  0  0  0  0  0  0  0  0  0
   -0.8097   -4.2863  -17.8124 C   0  0  0  0  0  0  0  0  0  0  0  0
   -0.1192   -4.3827  -19.0071 C   0  0  0  0  0  0  0  0  0  0  0  0
   -0.3211   -3.5401  -20.0655 O   0  0  0  0  0  0  0  0  0  0  0  0
    0.6742   -2.9347  -20.8294 C   0  0  0  0  0  0  0  0  0  0  0  0
    0.1028   -2.1784  -22.0125 C   0  0  0  0  0  0  0  0  0  0  0  0
   -0.9794   -1.2625  -21.4830 C   0  0  0  0  0  0  0  0  0  0  0  0
   -1.5344   -0.4062  -22.6017 C   0  0  0  0  0  0  0  0  0  0  0  0
   -0.4171    0.3851  -23.1228 N   0  0  0  0  0  0  0  0  0  0  0  0
    0.8875    0.1103  -22.5946 C   0  0  0  0  0  0  0  0  0  0  0  0
    1.2181   -1.3629  -22.6119 C   0  0  0  0  0  0  0  0  0  0  0  0
   -0.6823    1.3646  -24.1052 C   0  0  0  0  0  0  0  0  0  0  0  0
    0.3995    2.2638  -24.5786 C   0  0  0  0  0  0  0  0  0  0  0  0
   -1.8205    1.5002  -24.5972 O   0  0  0  0  0  0  0  0  0  0  0  0
    0.8330   -5.3766  -19.1655 C   0  0  0  0  0  0  0  0  0  0  0  0
    1.0606   -6.2421  -18.1172 C   0  0  0  0  0  0  0  0  0  0  0  0
    1.9918   -7.2375  -18.2308 F   0  0  0  0  0  0  0  0  0  0  0  0
    0.3551   -6.1301  -16.9197 C   0  0  0  0  0  0  0  0  0  0  0  0
  1  2  2  0
  2  3  1  0
  3  4  1  0
  4  5  1  0
  5  6  1  0
  6  7  1  0
  7  8  1  0
  8  9  1  0
  9 10  1  0
 10 11  1  0
 11 12  1  0
  4 13  2  0
 13 14  1  0
 14 15  2  0
 15 16  1  0
 16 17  1  0
 17 18  1  0
 18 19  1  0
 19 20  1  0
 20 21  1  0
 21 22  1  0
 22 23  1  0
 23 24  1  0
 22 25  1  0
 25 26  1  0
 25 27  2  0
 16 28  2  0
 28 29  1  0
 29 30  1  0
 29 31  2  0
 31  2  1  0
 12  7  1  0
 31 14  1  0
 24 19  1  0
M  END
$$$$
