
     RDKit          3D

 31 34  0  0  0  0  0  0  0  0999 V2000
    1.3697   -7.7514  -15.9735 O   0  0  0  0  0  0  0  0  0  0  0  0
    0.4997   -6.8590  -15.8076 C   0  0  0  0  0  0  0  0  0  0  0  0
   -0.2048   -6.7364  -14.6728 N   0  0  0  0  0  0  0  0  0  0  0  0
   -1.1456   -5.7634  -14.5070 C   0  0  0  0  0  0  0  0  0  0  0  0
   -1.8733   -5.7110  -13.2140 C   0  0  0  0  0  0  0  0  0  0  0  0
   -1.8852   -4.0821  -12.4647 S   0  0  0  0  0  0  0  0  0  0  0  0
   -2.7280   -4.0654  -10.8649 C   0  0  0  0  0  0  0  0  0  0  0  0
   -1.8082   -4.7614   -9.8581 C   0  0  0  0  0  0  0  0  0  0  0  0
   -0.9456   -3.7483   -9.1371 C   0  0  0  0  0  0  0  0  0  0  0  0
   -0.5213   -2.7218   -9.9733 O   0  0  0  0  0  0  0  0  0  0  0  0
   -1.5506   -1.9700  -10.4945 C   0  0  0  0  0  0  0  0  0  0  0  0
   -2.9060   -2.6407  -10.3465 C   0  0  0  0  0  0  0  0  0  0  0  0
   -1.3719   -4.9087  -15.5024 N   0  0  0  0  0  0  0  0  0  0  0  0
   -0.6846   -5.0010  -16.6552 C   0  0  0  0  0  0  0  0  0  0  0  0
   -0.8972   -4.1276  -17.7082 C   0  0  0  0  0  0  0  0  0  0  0  0
   -0.2042   -4.2015  -18.9030 C   0  0  0  0  0  0  0  0  0  0  0  0
   -0.4079   -3.3425  -19.9479 O   0  0  0  0  0  0  0  0  0  0  0  0
   -0.0348   -3.5634  -21.2718 C   0  0  0  0  0  0  0  0  0  0  0  0
   -0.4588   -2.4260  -22.1799 C   0  0  0  0  0  0  0  0  0  0  0  0
   -0.7544   -1.2312  -21.2993 C   0  0  0  0  0  0  0  0  0  0  0  0
   -1.0978   -0.0262  -22.1495 C   0  0  0  0  0  0  0  0  0  0  0  0
    0.0711    0.2458  -22.9896 N   0  0  0  0  0  0  0  0  0  0  0  0
    1.1575   -0.6884  -22.9290 C   0  0  0  0  0  0  0  0  0  0  0  0
    0.6989   -2.1177  -23.0925 C   0  0  0  0  0  0  0  0  0  0  0  0
    0.0651    1.3999  -23.8037 C   0  0  0  0  0  0  0  0  0  0  0  0
   -0.9130    2.4881  -23.5544 C   0  0  0  0  0  0  0  0  0  0  0  0
    0.8724    1.5357  -24.7448 O   0  0  0  0  0  0  0  0  0  0  0  0
    0.7527   -5.1885  -19.0759 C   0  0  0  0  0  0  0  0  0  0  0  0
    0.9822   -6.0701  -18.0415 C   0  0  0  0  0  0  0  0  0  0  0  0
    1.9178   -7.0594  -18.1696 F   0  0  0  0  0  0  0  0  0  0  0  0
    0.2740   -5.9808  -16.8436 C   0  0  0  0  0  0  0  0  0  0  0  0
  1  2  2  0
  2  3  1  0
  3  4  1  0
  4  5  1  0
  5  6  1  0
  6  7  1  0
  7  8  1  0
  8  9  1  0
  9 10  1  0
 10 11  1  0
 11 12  1  0
  4 13  2  0
 13 14  1  0
 14 15  2  0
 15 16  1  0
 16 17  1  0
 17 18  1  0
 18 19  1  0
 19 20  1  0
 20 21  1  0
 21 22  1  0
 22 23  1  0
 23 24  1  0
 22 25  1  0
 25 26  1  0
 25 27  2  0
 16 28  2  0
 28 29  1  0
 29 30  1  0
 29 31  2  0
 31  2  1  0
 12  7  1  0
 31 14  1  0
 24 19  1  0
M  END
$$$$
