
     RDKit          3D

 31 34  0  0  0  0  0  0  0  0999 V2000
    1.5446   -7.7575  -16.6477 O   0  0  0  0  0  0  0  0  0  0  0  0
    0.8634   -6.7532  -16.9765 C   0  0  0  0  0  0  0  0  0  0  0  0
    1.0077   -6.1355  -18.1584 N   0  0  0  0  0  0  0  0  0  0  0  0
    0.2616   -5.0469  -18.5015 C   0  0  0  0  0  0  0  0  0  0  0  0
    0.4966   -4.4328  -19.8326 C   0  0  0  0  0  0  0  0  0  0  0  0
    0.0802   -2.6901  -19.9005 S   0  0  0  0  0  0  0  0  0  0  0  0
   -1.6675   -2.4130  -20.2726 C   0  0  0  0  0  0  0  0  0  0  0  0
   -1.9221   -0.9068  -20.1691 C   0  0  0  0  0  0  0  0  0  0  0  0
   -1.7829   -0.2495  -21.5251 C   0  0  0  0  0  0  0  0  0  0  0  0
   -0.7496   -0.7974  -22.2768 O   0  0  0  0  0  0  0  0  0  0  0  0
   -0.9249   -2.1311  -22.5711 C   0  0  0  0  0  0  0  0  0  0  0  0
   -1.9941   -2.7895  -21.7154 C   0  0  0  0  0  0  0  0  0  0  0  0
   -0.6377   -4.5828  -17.6366 N   0  0  0  0  0  0  0  0  0  0  0  0
   -0.8103   -5.1765  -16.4417 C   0  0  0  0  0  0  0  0  0  0  0  0
   -1.7371   -4.7175  -15.5213 C   0  0  0  0  0  0  0  0  0  0  0  0
   -1.9333   -5.3099  -14.2868 C   0  0  0  0  0  0  0  0  0  0  0  0
   -2.8468   -4.8629  -13.3720 O   0  0  0  0  0  0  0  0  0  0  0  0
   -2.9468   -3.5612  -12.8861 C   0  0  0  0  0  0  0  0  0  0  0  0
   -3.0331   -3.5236  -11.3731 C   0  0  0  0  0  0  0  0  0  0  0  0
   -1.7375   -4.0892  -10.8326 C   0  0  0  0  0  0  0  0  0  0  0  0
   -1.7165   -3.9980   -9.3213 C   0  0  0  0  0  0  0  0  0  0  0  0
   -1.8247   -2.5770   -8.9817 N   0  0  0  0  0  0  0  0  0  0  0  0
   -2.0413   -1.6568  -10.0600 C   0  0  0  0  0  0  0  0  0  0  0  0
   -3.1753   -2.0818  -10.9619 C   0  0  0  0  0  0  0  0  0  0  0  0
   -1.7107   -2.1949   -7.6268 C   0  0  0  0  0  0  0  0  0  0  0  0
   -2.0371   -0.8087   -7.2086 C   0  0  0  0  0  0  0  0  0  0  0  0
   -1.3365   -3.0027   -6.7529 O   0  0  0  0  0  0  0  0  0  0  0  0
   -1.1775   -6.4162  -13.9339 C   0  0  0  0  0  0  0  0  0  0  0  0
   -0.2482   -6.8917  -14.8340 C   0  0  0  0  0  0  0  0  0  0  0  0
    0.5190   -7.9814  -14.5264 F   0  0  0  0  0  0  0  0  0  0  0  0
   -0.0636   -6.2819  -16.0743 C   0  0  0  0  0  0  0  0  0  0  0  0
  1  2  2  0
  2  3  1  0
  3  4  1  0
  4  5  1  0
  5  6  1  0
  6  7  1  0
  7  8  1  0
  8  9  1  0
  9 10  1  0
 10 11  1  0
 11 12  1  0
  4 13  2  0
 13 14  1  0
 14 15  2  0
 15 16  1  0
 16 17  1  0
 17 18  1  0
 18 19  1  0
 19 20  1  0
 20 21  1  0
 21 22  1  0
 22 23  1  0
 23 24  1  0
 22 25  1  0
 25 26  1  0
 25 27  2  0
 16 28  2  0
 28 29  1  0
 29 30  1  0
 29 31  2  0
 31  2  1  0
 12  7  1  0
 31 14  1  0
 24 19  1  0
M  END
$$$$
