
     RDKit          3D

 31 34  0  0  0  0  0  0  0  0999 V2000
    1.7004   -7.6956  -16.5521 O   0  0  0  0  0  0  0  0  0  0  0  0
    0.9062   -6.8079  -16.9546 C   0  0  0  0  0  0  0  0  0  0  0  0
    0.8443   -6.4190  -18.2369 N   0  0  0  0  0  0  0  0  0  0  0  0
   -0.0223   -5.4546  -18.6592 C   0  0  0  0  0  0  0  0  0  0  0  0
   -0.0142   -5.0928  -20.0991 C   0  0  0  0  0  0  0  0  0  0  0  0
    1.0003   -3.6622  -20.4720 S   0  0  0  0  0  0  0  0  0  0  0  0
    0.1945   -2.1084  -20.0176 C   0  0  0  0  0  0  0  0  0  0  0  0
    1.0635   -0.9695  -20.5579 C   0  0  0  0  0  0  0  0  0  0  0  0
    0.5808   -0.5348  -21.9248 C   0  0  0  0  0  0  0  0  0  0  0  0
    0.1584   -1.6060  -22.7039 O   0  0  0  0  0  0  0  0  0  0  0  0
   -0.9146   -2.2876  -22.1745 C   0  0  0  0  0  0  0  0  0  0  0  0
   -1.1577   -1.9615  -20.7104 C   0  0  0  0  0  0  0  0  0  0  0  0
   -0.8318   -4.8813  -17.7713 N   0  0  0  0  0  0  0  0  0  0  0  0
   -0.7980   -5.2457  -16.4767 C   0  0  0  0  0  0  0  0  0  0  0  0
   -1.6268   -4.6683  -15.5299 C   0  0  0  0  0  0  0  0  0  0  0  0
   -1.6112   -5.0251  -14.1936 C   0  0  0  0  0  0  0  0  0  0  0  0
   -2.4268   -4.4599  -13.2521 O   0  0  0  0  0  0  0  0  0  0  0  0
   -2.3660   -4.6833  -11.8784 C   0  0  0  0  0  0  0  0  0  0  0  0
   -2.0650   -3.4129  -11.1079 C   0  0  0  0  0  0  0  0  0  0  0  0
   -3.3907   -2.7715  -10.7591 C   0  0  0  0  0  0  0  0  0  0  0  0
   -3.1684   -1.5399   -9.9067 C   0  0  0  0  0  0  0  0  0  0  0  0
   -2.4899   -1.9861   -8.6875 N   0  0  0  0  0  0  0  0  0  0  0  0
   -2.0944   -3.3629   -8.6201 C   0  0  0  0  0  0  0  0  0  0  0  0
   -1.3378   -3.8065   -9.8493 C   0  0  0  0  0  0  0  0  0  0  0  0
   -2.2652   -1.0474   -7.6564 C   0  0  0  0  0  0  0  0  0  0  0  0
   -1.5536   -1.4502   -6.4177 C   0  0  0  0  0  0  0  0  0  0  0  0
   -2.6542    0.1336   -7.7565 O   0  0  0  0  0  0  0  0  0  0  0  0
   -0.7323   -6.0045  -13.7600 C   0  0  0  0  0  0  0  0  0  0  0  0
    0.1031   -6.5941  -14.6843 C   0  0  0  0  0  0  0  0  0  0  0  0
    0.9859   -7.5653  -14.2994 F   0  0  0  0  0  0  0  0  0  0  0  0
    0.0738   -6.2219  -16.0278 C   0  0  0  0  0  0  0  0  0  0  0  0
  1  2  2  0
  2  3  1  0
  3  4  1  0
  4  5  1  0
  5  6  1  0
  6  7  1  0
  7  8  1  0
  8  9  1  0
  9 10  1  0
 10 11  1  0
 11 12  1  0
  4 13  2  0
 13 14  1  0
 14 15  2  0
 15 16  1  0
 16 17  1  0
 17 18  1  0
 18 19  1  0
 19 20  1  0
 20 21  1  0
 21 22  1  0
 22 23  1  0
 23 24  1  0
 22 25  1  0
 25 26  1  0
 25 27  2  0
 16 28  2  0
 28 29  1  0
 29 30  1  0
 29 31  2  0
 31  2  1  0
 12  7  1  0
 31 14  1  0
 24 19  1  0
M  END
$$$$
