
     RDKit          3D

 31 34  0  0  0  0  0  0  0  0999 V2000
    1.6852   -7.8468  -15.7462 O   0  0  0  0  0  0  0  0  0  0  0  0
    1.0876   -7.0196  -16.4806 C   0  0  0  0  0  0  0  0  0  0  0  0
    1.3376   -6.9036  -17.7933 N   0  0  0  0  0  0  0  0  0  0  0  0
    0.6814   -6.0015  -18.5777 C   0  0  0  0  0  0  0  0  0  0  0  0
    1.0301   -5.9488  -20.0199 C   0  0  0  0  0  0  0  0  0  0  0  0
    0.4377   -4.4718  -20.8460 S   0  0  0  0  0  0  0  0  0  0  0  0
   -1.3244   -4.1822  -20.5608 C   0  0  0  0  0  0  0  0  0  0  0  0
   -1.7002   -2.8957  -21.3009 C   0  0  0  0  0  0  0  0  0  0  0  0
   -2.2277   -3.2124  -22.6836 C   0  0  0  0  0  0  0  0  0  0  0  0
   -1.5454   -4.2646  -23.2836 O   0  0  0  0  0  0  0  0  0  0  0  0
   -1.6578   -5.4573  -22.6046 C   0  0  0  0  0  0  0  0  0  0  0  0
   -2.1760   -5.2835  -21.1868 C   0  0  0  0  0  0  0  0  0  0  0  0
   -0.2356   -5.2115  -18.0233 N   0  0  0  0  0  0  0  0  0  0  0  0
   -0.5129   -5.2994  -16.7098 C   0  0  0  0  0  0  0  0  0  0  0  0
   -1.4608   -4.4921  -16.1043 C   0  0  0  0  0  0  0  0  0  0  0  0
   -1.7639   -4.5628  -14.7566 C   0  0  0  0  0  0  0  0  0  0  0  0
   -2.6990   -3.7693  -14.1507 O   0  0  0  0  0  0  0  0  0  0  0  0
   -2.8264   -3.5578  -12.7797 C   0  0  0  0  0  0  0  0  0  0  0  0
   -2.3119   -2.1937  -12.3640 C   0  0  0  0  0  0  0  0  0  0  0  0
   -3.3315   -1.1699  -12.8146 C   0  0  0  0  0  0  0  0  0  0  0  0
   -2.9252    0.2130  -12.3507 C   0  0  0  0  0  0  0  0  0  0  0  0
   -2.8703    0.1691  -10.8874 N   0  0  0  0  0  0  0  0  0  0  0  0
   -3.0694   -1.1043  -10.2587 C   0  0  0  0  0  0  0  0  0  0  0  0
   -2.2061   -2.1865  -10.8618 C   0  0  0  0  0  0  0  0  0  0  0  0
   -2.6275    1.3692  -10.1835 C   0  0  0  0  0  0  0  0  0  0  0  0
   -2.4246    1.3482   -8.7133 C   0  0  0  0  0  0  0  0  0  0  0  0
   -2.5774    2.4686  -10.7708 O   0  0  0  0  0  0  0  0  0  0  0  0
   -1.0998   -5.4779  -13.9557 C   0  0  0  0  0  0  0  0  0  0  0  0
   -0.1516   -6.2928  -14.5360 C   0  0  0  0  0  0  0  0  0  0  0  0
    0.5276   -7.2102  -13.7824 F   0  0  0  0  0  0  0  0  0  0  0  0
    0.1413   -6.2078  -15.8966 C   0  0  0  0  0  0  0  0  0  0  0  0
  1  2  2  0
  2  3  1  0
  3  4  1  0
  4  5  1  0
  5  6  1  0
  6  7  1  0
  7  8  1  0
  8  9  1  0
  9 10  1  0
 10 11  1  0
 11 12  1  0
  4 13  2  0
 13 14  1  0
 14 15  2  0
 15 16  1  0
 16 17  1  0
 17 18  1  0
 18 19  1  0
 19 20  1  0
 20 21  1  0
 21 22  1  0
 22 23  1  0
 23 24  1  0
 22 25  1  0
 25 26  1  0
 25 27  2  0
 16 28  2  0
 28 29  1  0
 29 30  1  0
 29 31  2  0
 31  2  1  0
 12  7  1  0
 31 14  1  0
 24 19  1  0
M  END
$$$$
