
     RDKit          3D

 31 34  0  0  0  0  0  0  0  0999 V2000
    1.5667   -7.7916  -16.0833 O   0  0  0  0  0  0  0  0  0  0  0  0
    0.8897   -6.9232  -16.6903 C   0  0  0  0  0  0  0  0  0  0  0  0
    1.0736   -6.6383  -17.9881 N   0  0  0  0  0  0  0  0  0  0  0  0
    0.3316   -5.6937  -18.6334 C   0  0  0  0  0  0  0  0  0  0  0  0
    0.6119   -5.4501  -20.0709 C   0  0  0  0  0  0  0  0  0  0  0  0
    1.2133   -3.7958  -20.4126 S   0  0  0  0  0  0  0  0  0  0  0  0
    0.0177   -2.5192  -19.9534 C   0  0  0  0  0  0  0  0  0  0  0  0
    0.6034   -1.1712  -20.3822 C   0  0  0  0  0  0  0  0  0  0  0  0
    0.1089   -0.7909  -21.7610 C   0  0  0  0  0  0  0  0  0  0  0  0
    0.0159   -1.8863  -22.6122 O   0  0  0  0  0  0  0  0  0  0  0  0
   -0.8810   -2.8420  -22.1899 C   0  0  0  0  0  0  0  0  0  0  0  0
   -1.2846   -2.6719  -20.7349 C   0  0  0  0  0  0  0  0  0  0  0  0
   -0.6042   -5.0338  -17.9544 N   0  0  0  0  0  0  0  0  0  0  0  0
   -0.8171   -5.2927  -16.6515 C   0  0  0  0  0  0  0  0  0  0  0  0
   -1.7824   -4.6236  -15.9185 C   0  0  0  0  0  0  0  0  0  0  0  0
   -2.0204   -4.8711  -14.5787 C   0  0  0  0  0  0  0  0  0  0  0  0
   -2.9722   -4.2149  -13.8474 O   0  0  0  0  0  0  0  0  0  0  0  0
   -2.9832   -4.0718  -12.4618 C   0  0  0  0  0  0  0  0  0  0  0  0
   -2.3731   -2.7560  -12.0206 C   0  0  0  0  0  0  0  0  0  0  0  0
   -3.4282   -1.6860  -12.2008 C   0  0  0  0  0  0  0  0  0  0  0  0
   -2.9162   -0.3548  -11.6923 C   0  0  0  0  0  0  0  0  0  0  0  0
   -2.6183   -0.5320  -10.2689 N   0  0  0  0  0  0  0  0  0  0  0  0
   -2.7406   -1.8553   -9.7301 C   0  0  0  0  0  0  0  0  0  0  0  0
   -2.0173   -2.8863  -10.5631 C   0  0  0  0  0  0  0  0  0  0  0  0
   -2.2317    0.5969   -9.5133 C   0  0  0  0  0  0  0  0  0  0  0  0
   -1.7989    0.4422   -8.1020 C   0  0  0  0  0  0  0  0  0  0  0  0
   -2.2431    1.7432  -10.0051 O   0  0  0  0  0  0  0  0  0  0  0  0
   -1.2690   -5.8301  -13.9187 C   0  0  0  0  0  0  0  0  0  0  0  0
   -0.3017   -6.5097  -14.6276 C   0  0  0  0  0  0  0  0  0  0  0  0
    0.4627   -7.4644  -14.0154 F   0  0  0  0  0  0  0  0  0  0  0  0
   -0.0753   -6.2471  -15.9782 C   0  0  0  0  0  0  0  0  0  0  0  0
  1  2  2  0
  2  3  1  0
  3  4  1  0
  4  5  1  0
  5  6  1  0
  6  7  1  0
  7  8  1  0
  8  9  1  0
  9 10  1  0
 10 11  1  0
 11 12  1  0
  4 13  2  0
 13 14  1  0
 14 15  2  0
 15 16  1  0
 16 17  1  0
 17 18  1  0
 18 19  1  0
 19 20  1  0
 20 21  1  0
 21 22  1  0
 22 23  1  0
 23 24  1  0
 22 25  1  0
 25 26  1  0
 25 27  2  0
 16 28  2  0
 28 29  1  0
 29 30  1  0
 29 31  2  0
 31  2  1  0
 12  7  1  0
 31 14  1  0
 24 19  1  0
M  END
$$$$
