
     RDKit          3D

 31 34  0  0  0  0  0  0  0  0999 V2000
    5.2593   55.6574  -19.4904 O   0  0  0  0  0  0  0  0  0  0  0  0
    4.9325   54.6298  -20.1369 C   0  0  0  0  0  0  0  0  0  0  0  0
    4.8018   54.6251  -21.4719 N   0  0  0  0  0  0  0  0  0  0  0  0
    4.4466   53.5027  -22.1600 C   0  0  0  0  0  0  0  0  0  0  0  0
    4.3269   53.5996  -23.6367 C   0  0  0  0  0  0  0  0  0  0  0  0
    5.8224   54.1772  -24.4397 S   0  0  0  0  0  0  0  0  0  0  0  0
    6.5454   52.9291  -25.5303 C   0  0  0  0  0  0  0  0  0  0  0  0
    7.1994   53.6699  -26.6998 C   0  0  0  0  0  0  0  0  0  0  0  0
    8.6655   53.9184  -26.4188 C   0  0  0  0  0  0  0  0  0  0  0  0
    8.9039   54.2369  -25.0867 O   0  0  0  0  0  0  0  0  0  0  0  0
    8.5630   53.2338  -24.2071 C   0  0  0  0  0  0  0  0  0  0  0  0
    7.6751   52.1730  -24.8359 C   0  0  0  0  0  0  0  0  0  0  0  0
    4.2227   52.3767  -21.4859 N   0  0  0  0  0  0  0  0  0  0  0  0
    4.3441   52.3435  -20.1465 C   0  0  0  0  0  0  0  0  0  0  0  0
    4.1179   51.1884  -19.4175 C   0  0  0  0  0  0  0  0  0  0  0  0
    4.2360   51.1284  -18.0407 C   0  0  0  0  0  0  0  0  0  0  0  0
    4.0146   49.9914  -17.3131 O   0  0  0  0  0  0  0  0  0  0  0  0
    4.5149   48.7244  -17.6048 C   0  0  0  0  0  0  0  0  0  0  0  0
    5.6947   48.3618  -16.7247 C   0  0  0  0  0  0  0  0  0  0  0  0
    6.1563   46.9800  -17.1347 C   0  0  0  0  0  0  0  0  0  0  0  0
    7.3943   46.5888  -16.3555 C   0  0  0  0  0  0  0  0  0  0  0  0
    8.4258   47.5786  -16.6754 N   0  0  0  0  0  0  0  0  0  0  0  0
    8.0390   48.6929  -17.4910 C   0  0  0  0  0  0  0  0  0  0  0  0
    6.7846   49.3670  -16.9891 C   0  0  0  0  0  0  0  0  0  0  0  0
    9.7301   47.3836  -16.1697 C   0  0  0  0  0  0  0  0  0  0  0  0
   10.2430   48.2377  -15.0695 C   0  0  0  0  0  0  0  0  0  0  0  0
   10.4795   46.4982  -16.6284 O   0  0  0  0  0  0  0  0  0  0  0  0
    4.5966   52.2663  -17.3373 C   0  0  0  0  0  0  0  0  0  0  0  0
    4.8271   53.4288  -18.0413 C   0  0  0  0  0  0  0  0  0  0  0  0
    5.1854   54.5751  -17.3868 F   0  0  0  0  0  0  0  0  0  0  0  0
    4.7034   53.4711  -19.4295 C   0  0  0  0  0  0  0  0  0  0  0  0
  1  2  2  0
  2  3  1  0
  3  4  1  0
  4  5  1  0
  5  6  1  0
  6  7  1  0
  7  8  1  0
  8  9  1  0
  9 10  1  0
 10 11  1  0
 11 12  1  0
  4 13  2  0
 13 14  1  0
 14 15  2  0
 15 16  1  0
 16 17  1  0
 17 18  1  0
 18 19  1  0
 19 20  1  0
 20 21  1  0
 21 22  1  0
 22 23  1  0
 23 24  1  0
 22 25  1  0
 25 26  1  0
 25 27  2  0
 16 28  2  0
 28 29  1  0
 29 30  1  0
 29 31  2  0
 31  2  1  0
 12  7  1  0
 31 14  1  0
 24 19  1  0
M  END
$$$$
