
     RDKit          3D

 31 34  0  0  0  0  0  0  0  0999 V2000
    1.5162   -7.6467  -16.3342 O   0  0  0  0  0  0  0  0  0  0  0  0
    0.9272   -6.5905  -16.6785 C   0  0  0  0  0  0  0  0  0  0  0  0
    1.1619   -5.9791  -17.8491 N   0  0  0  0  0  0  0  0  0  0  0  0
    0.5154   -4.8337  -18.2092 C   0  0  0  0  0  0  0  0  0  0  0  0
    0.8456   -4.2320  -19.5257 C   0  0  0  0  0  0  0  0  0  0  0  0
    0.0480   -2.6516  -19.8105 S   0  0  0  0  0  0  0  0  0  0  0  0
   -1.4233   -2.7996  -20.8515 C   0  0  0  0  0  0  0  0  0  0  0  0
   -2.0841   -1.4196  -20.9052 C   0  0  0  0  0  0  0  0  0  0  0  0
   -1.6062   -0.6480  -22.1163 C   0  0  0  0  0  0  0  0  0  0  0  0
   -0.2575   -0.8575  -22.3807 O   0  0  0  0  0  0  0  0  0  0  0  0
    0.0527   -2.1659  -22.6774 C   0  0  0  0  0  0  0  0  0  0  0  0
   -1.0513   -3.1367  -22.2930 C   0  0  0  0  0  0  0  0  0  0  0  0
   -0.3761   -4.3062  -17.3731 N   0  0  0  0  0  0  0  0  0  0  0  0
   -0.6376   -4.8916  -16.1903 C   0  0  0  0  0  0  0  0  0  0  0  0
   -1.5588   -4.3673  -15.2997 C   0  0  0  0  0  0  0  0  0  0  0  0
   -1.8452   -4.9499  -14.0783 C   0  0  0  0  0  0  0  0  0  0  0  0
   -2.7540   -4.4386  -13.1930 O   0  0  0  0  0  0  0  0  0  0  0  0
   -2.7454   -4.6274  -11.8128 C   0  0  0  0  0  0  0  0  0  0  0  0
   -2.1664   -3.4340  -11.0787 C   0  0  0  0  0  0  0  0  0  0  0  0
   -3.3290   -2.6103  -10.5681 C   0  0  0  0  0  0  0  0  0  0  0  0
   -2.8232   -1.4455   -9.7434 C   0  0  0  0  0  0  0  0  0  0  0  0
   -2.0788   -2.0157   -8.6179 N   0  0  0  0  0  0  0  0  0  0  0  0
   -1.8901   -3.4373   -8.6057 C   0  0  0  0  0  0  0  0  0  0  0  0
   -1.3615   -3.9603   -9.9198 C   0  0  0  0  0  0  0  0  0  0  0  0
   -1.5935   -1.1449   -7.6175 C   0  0  0  0  0  0  0  0  0  0  0  0
   -2.1095    0.2432   -7.5170 C   0  0  0  0  0  0  0  0  0  0  0  0
   -0.7272   -1.5135   -6.7992 O   0  0  0  0  0  0  0  0  0  0  0  0
   -1.1908   -6.1137  -13.7081 C   0  0  0  0  0  0  0  0  0  0  0  0
   -0.2690   -6.6547  -14.5784 C   0  0  0  0  0  0  0  0  0  0  0  0
    0.3998   -7.8026  -14.2530 F   0  0  0  0  0  0  0  0  0  0  0  0
    0.0073   -6.0539  -15.8060 C   0  0  0  0  0  0  0  0  0  0  0  0
  1  2  2  0
  2  3  1  0
  3  4  1  0
  4  5  1  0
  5  6  1  0
  6  7  1  0
  7  8  1  0
  8  9  1  0
  9 10  1  0
 10 11  1  0
 11 12  1  0
  4 13  2  0
 13 14  1  0
 14 15  2  0
 15 16  1  0
 16 17  1  0
 17 18  1  0
 18 19  1  0
 19 20  1  0
 20 21  1  0
 21 22  1  0
 22 23  1  0
 23 24  1  0
 22 25  1  0
 25 26  1  0
 25 27  2  0
 16 28  2  0
 28 29  1  0
 29 30  1  0
 29 31  2  0
 31  2  1  0
 12  7  1  0
 31 14  1  0
 24 19  1  0
M  END
$$$$
