
     RDKit          3D

 31 34  0  0  0  0  0  0  0  0999 V2000
    1.9968   -7.2727  -16.1355 O   0  0  0  0  0  0  0  0  0  0  0  0
    1.1609   -6.3735  -16.4067 C   0  0  0  0  0  0  0  0  0  0  0  0
    1.2724   -5.5821  -17.4839 N   0  0  0  0  0  0  0  0  0  0  0  0
    0.3578   -4.6106  -17.7655 C   0  0  0  0  0  0  0  0  0  0  0  0
    0.5700   -3.7855  -18.9814 C   0  0  0  0  0  0  0  0  0  0  0  0
   -0.7581   -2.6233  -19.2984 S   0  0  0  0  0  0  0  0  0  0  0  0
   -1.8102   -3.1380  -20.6762 C   0  0  0  0  0  0  0  0  0  0  0  0
   -2.9714   -2.1436  -20.7590 C   0  0  0  0  0  0  0  0  0  0  0  0
   -2.6529   -1.0346  -21.7383 C   0  0  0  0  0  0  0  0  0  0  0  0
   -1.3193   -0.6455  -21.6841 O   0  0  0  0  0  0  0  0  0  0  0  0
   -0.4354   -1.6471  -22.0183 C   0  0  0  0  0  0  0  0  0  0  0  0
   -1.0738   -3.0260  -22.0085 C   0  0  0  0  0  0  0  0  0  0  0  0
   -0.6777   -4.4425  -16.9458 N   0  0  0  0  0  0  0  0  0  0  0  0
   -0.8224   -5.2175  -15.8557 C   0  0  0  0  0  0  0  0  0  0  0  0
   -1.8879   -5.0672  -14.9845 C   0  0  0  0  0  0  0  0  0  0  0  0
   -2.0590   -5.8507  -13.8576 C   0  0  0  0  0  0  0  0  0  0  0  0
   -3.1088   -5.7088  -12.9922 O   0  0  0  0  0  0  0  0  0  0  0  0
   -3.0341   -5.2178  -11.6906 C   0  0  0  0  0  0  0  0  0  0  0  0
   -4.3255   -5.4326  -10.9263 C   0  0  0  0  0  0  0  0  0  0  0  0
   -4.3455   -6.8754  -10.4697 C   0  0  0  0  0  0  0  0  0  0  0  0
   -5.5697   -7.1384   -9.6184 C   0  0  0  0  0  0  0  0  0  0  0  0
   -5.4791   -6.2461   -8.4601 N   0  0  0  0  0  0  0  0  0  0  0  0
   -4.4048   -5.2963   -8.4428 C   0  0  0  0  0  0  0  0  0  0  0  0
   -4.3041   -4.5160   -9.7316 C   0  0  0  0  0  0  0  0  0  0  0  0
   -6.4430   -6.3686   -7.4350 C   0  0  0  0  0  0  0  0  0  0  0  0
   -6.5092   -5.3642   -6.3442 C   0  0  0  0  0  0  0  0  0  0  0  0
   -7.2568   -7.3138   -7.4176 O   0  0  0  0  0  0  0  0  0  0  0  0
   -1.1323   -6.8390  -13.5675 C   0  0  0  0  0  0  0  0  0  0  0  0
   -0.0626   -7.0078  -14.4203 C   0  0  0  0  0  0  0  0  0  0  0  0
    0.8756   -7.9716  -14.1718 F   0  0  0  0  0  0  0  0  0  0  0  0
    0.0942   -6.2086  -15.5521 C   0  0  0  0  0  0  0  0  0  0  0  0
  1  2  2  0
  2  3  1  0
  3  4  1  0
  4  5  1  0
  5  6  1  0
  6  7  1  0
  7  8  1  0
  8  9  1  0
  9 10  1  0
 10 11  1  0
 11 12  1  0
  4 13  2  0
 13 14  1  0
 14 15  2  0
 15 16  1  0
 16 17  1  0
 17 18  1  0
 18 19  1  0
 19 20  1  0
 20 21  1  0
 21 22  1  0
 22 23  1  0
 23 24  1  0
 22 25  1  0
 25 26  1  0
 25 27  2  0
 16 28  2  0
 28 29  1  0
 29 30  1  0
 29 31  2  0
 31  2  1  0
 12  7  1  0
 31 14  1  0
 24 19  1  0
M  END
$$$$
