
     RDKit          3D

 31 34  0  0  0  0  0  0  0  0999 V2000
    1.6041   -7.5618  -16.9260 O   0  0  0  0  0  0  0  0  0  0  0  0
    0.7403   -6.6659  -17.1045 C   0  0  0  0  0  0  0  0  0  0  0  0
    0.4605   -6.1604  -18.3150 N   0  0  0  0  0  0  0  0  0  0  0  0
   -0.4793   -5.1886  -18.4935 C   0  0  0  0  0  0  0  0  0  0  0  0
   -0.7157   -4.6931  -19.8730 C   0  0  0  0  0  0  0  0  0  0  0  0
    0.6903   -3.8288  -20.5738 S   0  0  0  0  0  0  0  0  0  0  0  0
    0.7568   -2.0947  -20.0653 C   0  0  0  0  0  0  0  0  0  0  0  0
    1.9590   -1.4594  -20.7690 C   0  0  0  0  0  0  0  0  0  0  0  0
    1.5322   -0.8069  -22.0661 C   0  0  0  0  0  0  0  0  0  0  0  0
    0.5591   -1.5413  -22.7345 O   0  0  0  0  0  0  0  0  0  0  0  0
   -0.6156   -1.6765  -22.0289 C   0  0  0  0  0  0  0  0  0  0  0  0
   -0.4656   -1.3247  -20.5584 C   0  0  0  0  0  0  0  0  0  0  0  0
   -1.1395   -4.7273  -17.4335 N   0  0  0  0  0  0  0  0  0  0  0  0
   -0.8857   -5.2104  -16.2038 C   0  0  0  0  0  0  0  0  0  0  0  0
   -1.5553   -4.7512  -15.0824 C   0  0  0  0  0  0  0  0  0  0  0  0
   -1.3127   -5.2313  -13.8081 C   0  0  0  0  0  0  0  0  0  0  0  0
   -1.9698   -4.7833  -12.6951 O   0  0  0  0  0  0  0  0  0  0  0  0
   -1.3895   -4.5085  -11.4589 C   0  0  0  0  0  0  0  0  0  0  0  0
   -2.4077   -4.0176  -10.4487 C   0  0  0  0  0  0  0  0  0  0  0  0
   -1.8307   -4.2614   -9.0709 C   0  0  0  0  0  0  0  0  0  0  0  0
   -2.7589   -3.7099   -8.0093 C   0  0  0  0  0  0  0  0  0  0  0  0
   -2.8772   -2.2709   -8.2570 N   0  0  0  0  0  0  0  0  0  0  0  0
   -2.2447   -1.7510   -9.4343 C   0  0  0  0  0  0  0  0  0  0  0  0
   -2.5945   -2.5402  -10.6732 C   0  0  0  0  0  0  0  0  0  0  0  0
   -3.5989   -1.4828   -7.3334 C   0  0  0  0  0  0  0  0  0  0  0  0
   -3.8639   -0.0501   -7.6165 C   0  0  0  0  0  0  0  0  0  0  0  0
   -4.0290   -1.9632   -6.2656 O   0  0  0  0  0  0  0  0  0  0  0  0
   -0.3587   -6.2187  -13.6218 C   0  0  0  0  0  0  0  0  0  0  0  0
    0.3212   -6.6920  -14.7235 C   0  0  0  0  0  0  0  0  0  0  0  0
    1.2709   -7.6665  -14.5851 F   0  0  0  0  0  0  0  0  0  0  0  0
    0.0637   -6.1963  -16.0012 C   0  0  0  0  0  0  0  0  0  0  0  0
  1  2  2  0
  2  3  1  0
  3  4  1  0
  4  5  1  0
  5  6  1  0
  6  7  1  0
  7  8  1  0
  8  9  1  0
  9 10  1  0
 10 11  1  0
 11 12  1  0
  4 13  2  0
 13 14  1  0
 14 15  2  0
 15 16  1  0
 16 17  1  0
 17 18  1  0
 18 19  1  0
 19 20  1  0
 20 21  1  0
 21 22  1  0
 22 23  1  0
 23 24  1  0
 22 25  1  0
 25 26  1  0
 25 27  2  0
 16 28  2  0
 28 29  1  0
 29 30  1  0
 29 31  2  0
 31  2  1  0
 12  7  1  0
 31 14  1  0
 24 19  1  0
M  END
$$$$
