
     RDKit          3D

 31 34  0  0  0  0  0  0  0  0999 V2000
    1.6738   -7.9227  -15.9540 O   0  0  0  0  0  0  0  0  0  0  0  0
    0.9938   -6.9479  -16.3640 C   0  0  0  0  0  0  0  0  0  0  0  0
    1.1814   -6.3898  -17.5692 N   0  0  0  0  0  0  0  0  0  0  0  0
    0.4361   -5.3326  -18.0006 C   0  0  0  0  0  0  0  0  0  0  0  0
    0.7209   -4.7842  -19.3506 C   0  0  0  0  0  0  0  0  0  0  0  0
   -0.6652   -3.9062  -20.0737 S   0  0  0  0  0  0  0  0  0  0  0  0
   -0.6717   -3.9961  -21.8797 C   0  0  0  0  0  0  0  0  0  0  0  0
   -1.0566   -5.4275  -22.2633 C   0  0  0  0  0  0  0  0  0  0  0  0
   -2.5479   -5.5324  -22.4982 C   0  0  0  0  0  0  0  0  0  0  0  0
   -3.2815   -4.7599  -21.6049 O   0  0  0  0  0  0  0  0  0  0  0  0
   -3.0250   -3.4102  -21.6985 C   0  0  0  0  0  0  0  0  0  0  0  0
   -1.7562   -3.1023  -22.4757 C   0  0  0  0  0  0  0  0  0  0  0  0
   -0.5069   -4.8391  -17.2009 N   0  0  0  0  0  0  0  0  0  0  0  0
   -0.7237   -5.3731  -15.9853 C   0  0  0  0  0  0  0  0  0  0  0  0
   -1.6965   -4.8824  -15.1310 C   0  0  0  0  0  0  0  0  0  0  0  0
   -1.9387   -5.4134  -13.8770 C   0  0  0  0  0  0  0  0  0  0  0  0
   -2.8978   -4.9348  -13.0272 O   0  0  0  0  0  0  0  0  0  0  0  0
   -3.0211   -3.6167  -12.5936 C   0  0  0  0  0  0  0  0  0  0  0  0
   -3.0154   -3.5121  -11.0813 C   0  0  0  0  0  0  0  0  0  0  0  0
   -1.5721   -3.5713  -10.6299 C   0  0  0  0  0  0  0  0  0  0  0  0
   -1.4841   -3.3803   -9.1304 C   0  0  0  0  0  0  0  0  0  0  0  0
   -2.0481   -2.0602   -8.8382 N   0  0  0  0  0  0  0  0  0  0  0  0
   -2.6362   -1.3391   -9.9294 C   0  0  0  0  0  0  0  0  0  0  0  0
   -3.6137   -2.1792  -10.7158 C   0  0  0  0  0  0  0  0  0  0  0  0
   -1.9826   -1.5749   -7.5135 C   0  0  0  0  0  0  0  0  0  0  0  0
   -2.6610   -0.3073   -7.1449 C   0  0  0  0  0  0  0  0  0  0  0  0
   -1.3594   -2.1909   -6.6256 O   0  0  0  0  0  0  0  0  0  0  0  0
   -1.1838   -6.4876  -13.4344 C   0  0  0  0  0  0  0  0  0  0  0  0
   -0.2091   -6.9938  -14.2673 C   0  0  0  0  0  0  0  0  0  0  0  0
    0.5589   -8.0536  -13.8703 F   0  0  0  0  0  0  0  0  0  0  0  0
    0.0214   -6.4458  -15.5286 C   0  0  0  0  0  0  0  0  0  0  0  0
  1  2  2  0
  2  3  1  0
  3  4  1  0
  4  5  1  0
  5  6  1  0
  6  7  1  0
  7  8  1  0
  8  9  1  0
  9 10  1  0
 10 11  1  0
 11 12  1  0
  4 13  2  0
 13 14  1  0
 14 15  2  0
 15 16  1  0
 16 17  1  0
 17 18  1  0
 18 19  1  0
 19 20  1  0
 20 21  1  0
 21 22  1  0
 22 23  1  0
 23 24  1  0
 22 25  1  0
 25 26  1  0
 25 27  2  0
 16 28  2  0
 28 29  1  0
 29 30  1  0
 29 31  2  0
 31  2  1  0
 12  7  1  0
 31 14  1  0
 24 19  1  0
M  END
$$$$
