
     RDKit          3D

 31 34  0  0  0  0  0  0  0  0999 V2000
    1.7247   -7.7067  -16.5166 O   0  0  0  0  0  0  0  0  0  0  0  0
    0.8704   -6.8141  -16.7491 C   0  0  0  0  0  0  0  0  0  0  0  0
    0.6377   -6.3376  -17.9811 N   0  0  0  0  0  0  0  0  0  0  0  0
   -0.2924   -5.3691  -18.2183 C   0  0  0  0  0  0  0  0  0  0  0  0
   -0.4754   -4.9067  -19.6173 C   0  0  0  0  0  0  0  0  0  0  0  0
    0.6335   -3.5766  -20.0824 S   0  0  0  0  0  0  0  0  0  0  0  0
   -0.0083   -1.9505  -19.6199 C   0  0  0  0  0  0  0  0  0  0  0  0
    0.8780   -0.9015  -20.2967 C   0  0  0  0  0  0  0  0  0  0  0  0
    0.2872   -0.4840  -21.6260 C   0  0  0  0  0  0  0  0  0  0  0  0
   -0.2890   -1.5492  -22.3087 O   0  0  0  0  0  0  0  0  0  0  0  0
   -1.3465   -2.1276  -21.6427 C   0  0  0  0  0  0  0  0  0  0  0  0
   -1.4117   -1.7287  -20.1780 C   0  0  0  0  0  0  0  0  0  0  0  0
   -0.9911   -4.8814  -17.1954 N   0  0  0  0  0  0  0  0  0  0  0  0
   -0.7850   -5.3350  -15.9458 C   0  0  0  0  0  0  0  0  0  0  0  0
   -1.4953   -4.8479  -14.8618 C   0  0  0  0  0  0  0  0  0  0  0  0
   -1.3021   -5.2975  -13.5680 C   0  0  0  0  0  0  0  0  0  0  0  0
   -1.9997   -4.8218  -12.4918 O   0  0  0  0  0  0  0  0  0  0  0  0
   -2.9422   -3.7963  -12.5174 C   0  0  0  0  0  0  0  0  0  0  0  0
   -3.3141   -3.3301  -11.1237 C   0  0  0  0  0  0  0  0  0  0  0  0
   -2.3287   -3.9557  -10.1603 C   0  0  0  0  0  0  0  0  0  0  0  0
   -2.5852   -3.4593   -8.7530 C   0  0  0  0  0  0  0  0  0  0  0  0
   -2.4087   -2.0052   -8.7785 N   0  0  0  0  0  0  0  0  0  0  0  0
   -2.1769   -1.3922  -10.0540 C   0  0  0  0  0  0  0  0  0  0  0  0
   -3.1789   -1.8305  -11.0952 C   0  0  0  0  0  0  0  0  0  0  0  0
   -2.4751   -1.2944   -7.5599 C   0  0  0  0  0  0  0  0  0  0  0  0
   -2.6528    0.1792   -7.5601 C   0  0  0  0  0  0  0  0  0  0  0  0
   -2.3873   -1.8784   -6.4611 O   0  0  0  0  0  0  0  0  0  0  0  0
   -0.3581   -6.2815  -13.3222 C   0  0  0  0  0  0  0  0  0  0  0  0
    0.3617   -6.7821  -14.3857 C   0  0  0  0  0  0  0  0  0  0  0  0
    1.3032   -7.7544  -14.1881 F   0  0  0  0  0  0  0  0  0  0  0  0
    0.1538   -6.3171  -15.6837 C   0  0  0  0  0  0  0  0  0  0  0  0
  1  2  2  0
  2  3  1  0
  3  4  1  0
  4  5  1  0
  5  6  1  0
  6  7  1  0
  7  8  1  0
  8  9  1  0
  9 10  1  0
 10 11  1  0
 11 12  1  0
  4 13  2  0
 13 14  1  0
 14 15  2  0
 15 16  1  0
 16 17  1  0
 17 18  1  0
 18 19  1  0
 19 20  1  0
 20 21  1  0
 21 22  1  0
 22 23  1  0
 23 24  1  0
 22 25  1  0
 25 26  1  0
 25 27  2  0
 16 28  2  0
 28 29  1  0
 29 30  1  0
 29 31  2  0
 31  2  1  0
 12  7  1  0
 31 14  1  0
 24 19  1  0
M  END
$$$$
