
     RDKit          3D

 31 34  0  0  0  0  0  0  0  0999 V2000
    1.6742   -7.3713  -16.8231 O   0  0  0  0  0  0  0  0  0  0  0  0
    0.7457   -6.5439  -17.0079 C   0  0  0  0  0  0  0  0  0  0  0  0
    0.4817   -6.0078  -18.2088 N   0  0  0  0  0  0  0  0  0  0  0  0
   -0.5288   -5.1113  -18.3944 C   0  0  0  0  0  0  0  0  0  0  0  0
   -0.7407   -4.5736  -19.7620 C   0  0  0  0  0  0  0  0  0  0  0  0
    0.6684   -3.6676  -20.4012 S   0  0  0  0  0  0  0  0  0  0  0  0
    0.5830   -1.9019  -20.0203 C   0  0  0  0  0  0  0  0  0  0  0  0
    1.7183   -1.2156  -20.7847 C   0  0  0  0  0  0  0  0  0  0  0  0
    1.2253   -0.7004  -22.1195 C   0  0  0  0  0  0  0  0  0  0  0  0
    0.3171   -1.5653  -22.7195 O   0  0  0  0  0  0  0  0  0  0  0  0
   -0.8357   -1.7523  -21.9899 C   0  0  0  0  0  0  0  0  0  0  0  0
   -0.7070   -1.2817  -20.5508 C   0  0  0  0  0  0  0  0  0  0  0  0
   -1.2765   -4.7571  -17.3514 N   0  0  0  0  0  0  0  0  0  0  0  0
   -1.0412   -5.2740  -16.1318 C   0  0  0  0  0  0  0  0  0  0  0  0
   -1.8009   -4.9256  -15.0280 C   0  0  0  0  0  0  0  0  0  0  0  0
   -1.5792   -5.4425  -13.7644 C   0  0  0  0  0  0  0  0  0  0  0  0
   -2.3252   -5.1038  -12.6689 O   0  0  0  0  0  0  0  0  0  0  0  0
   -2.8052   -3.8309  -12.3691 C   0  0  0  0  0  0  0  0  0  0  0  0
   -3.0401   -3.6467  -10.8828 C   0  0  0  0  0  0  0  0  0  0  0  0
   -1.7401   -3.9666  -10.1770 C   0  0  0  0  0  0  0  0  0  0  0  0
   -1.8758   -3.7149   -8.6901 C   0  0  0  0  0  0  0  0  0  0  0  0
   -2.1987   -2.2951   -8.5291 N   0  0  0  0  0  0  0  0  0  0  0  0
   -2.4282   -1.5325   -9.7217 C   0  0  0  0  0  0  0  0  0  0  0  0
   -3.4061   -2.2035  -10.6562 C   0  0  0  0  0  0  0  0  0  0  0  0
   -2.2653   -1.7605   -7.2235 C   0  0  0  0  0  0  0  0  0  0  0  0
   -2.7458   -0.3733   -7.0049 C   0  0  0  0  0  0  0  0  0  0  0  0
   -1.9259   -2.4316   -6.2283 O   0  0  0  0  0  0  0  0  0  0  0  0
   -0.5535   -6.3537  -13.5710 C   0  0  0  0  0  0  0  0  0  0  0  0
    0.2168   -6.7162  -14.6551 C   0  0  0  0  0  0  0  0  0  0  0  0
    1.2393   -7.6127  -14.5091 F   0  0  0  0  0  0  0  0  0  0  0  0
   -0.0210   -6.1849  -15.9222 C   0  0  0  0  0  0  0  0  0  0  0  0
  1  2  2  0
  2  3  1  0
  3  4  1  0
  4  5  1  0
  5  6  1  0
  6  7  1  0
  7  8  1  0
  8  9  1  0
  9 10  1  0
 10 11  1  0
 11 12  1  0
  4 13  2  0
 13 14  1  0
 14 15  2  0
 15 16  1  0
 16 17  1  0
 17 18  1  0
 18 19  1  0
 19 20  1  0
 20 21  1  0
 21 22  1  0
 22 23  1  0
 23 24  1  0
 22 25  1  0
 25 26  1  0
 25 27  2  0
 16 28  2  0
 28 29  1  0
 29 30  1  0
 29 31  2  0
 31  2  1  0
 12  7  1  0
 31 14  1  0
 24 19  1  0
M  END
$$$$
