
     RDKit          3D

 31 34  0  0  0  0  0  0  0  0999 V2000
    1.5349   -7.6004  -16.1752 O   0  0  0  0  0  0  0  0  0  0  0  0
    0.9414   -6.5563  -16.5475 C   0  0  0  0  0  0  0  0  0  0  0  0
    1.2039   -5.9515  -17.7156 N   0  0  0  0  0  0  0  0  0  0  0  0
    0.5522   -4.8193  -18.1064 C   0  0  0  0  0  0  0  0  0  0  0  0
    0.9148   -4.2240  -19.4173 C   0  0  0  0  0  0  0  0  0  0  0  0
    0.2596   -2.5726  -19.6593 S   0  0  0  0  0  0  0  0  0  0  0  0
   -1.3887   -2.5871  -20.4029 C   0  0  0  0  0  0  0  0  0  0  0  0
   -1.8970   -1.1429  -20.4122 C   0  0  0  0  0  0  0  0  0  0  0  0
   -1.5765   -0.4749  -21.7319 C   0  0  0  0  0  0  0  0  0  0  0  0
   -0.3319   -0.8475  -22.2268 O   0  0  0  0  0  0  0  0  0  0  0  0
   -0.2243   -2.1926  -22.5012 C   0  0  0  0  0  0  0  0  0  0  0  0
   -1.3331   -3.0156  -21.8669 C   0  0  0  0  0  0  0  0  0  0  0  0
   -0.3732   -4.2981  -17.3037 N   0  0  0  0  0  0  0  0  0  0  0  0
   -0.6632   -4.8772  -16.1245 C   0  0  0  0  0  0  0  0  0  0  0  0
   -1.6200   -4.3593  -15.2682 C   0  0  0  0  0  0  0  0  0  0  0  0
   -1.9361   -4.9356  -14.0512 C   0  0  0  0  0  0  0  0  0  0  0  0
   -2.8801   -4.4306  -13.1996 O   0  0  0  0  0  0  0  0  0  0  0  0
   -2.9055   -4.5969  -11.8167 C   0  0  0  0  0  0  0  0  0  0  0  0
   -2.3702   -3.3806  -11.0872 C   0  0  0  0  0  0  0  0  0  0  0  0
   -3.5342   -2.7401  -10.3624 C   0  0  0  0  0  0  0  0  0  0  0  0
   -3.0541   -1.5663   -9.5352 C   0  0  0  0  0  0  0  0  0  0  0  0
   -2.0903   -2.0966   -8.5677 N   0  0  0  0  0  0  0  0  0  0  0  0
   -1.7352   -3.4812   -8.6832 C   0  0  0  0  0  0  0  0  0  0  0  0
   -1.3473   -3.8616  -10.0920 C   0  0  0  0  0  0  0  0  0  0  0  0
   -1.5697   -1.2260   -7.5850 C   0  0  0  0  0  0  0  0  0  0  0  0
   -2.1899    0.1030   -7.3563 C   0  0  0  0  0  0  0  0  0  0  0  0
   -0.5849   -1.5456   -6.8893 O   0  0  0  0  0  0  0  0  0  0  0  0
   -1.2765   -6.0860  -13.6499 C   0  0  0  0  0  0  0  0  0  0  0  0
   -0.3196   -6.6205  -14.4857 C   0  0  0  0  0  0  0  0  0  0  0  0
    0.3556   -7.7553  -14.1289 F   0  0  0  0  0  0  0  0  0  0  0  0
   -0.0136   -6.0262  -15.7094 C   0  0  0  0  0  0  0  0  0  0  0  0
  1  2  2  0
  2  3  1  0
  3  4  1  0
  4  5  1  0
  5  6  1  0
  6  7  1  0
  7  8  1  0
  8  9  1  0
  9 10  1  0
 10 11  1  0
 11 12  1  0
  4 13  2  0
 13 14  1  0
 14 15  2  0
 15 16  1  0
 16 17  1  0
 17 18  1  0
 18 19  1  0
 19 20  1  0
 20 21  1  0
 21 22  1  0
 22 23  1  0
 23 24  1  0
 22 25  1  0
 25 26  1  0
 25 27  2  0
 16 28  2  0
 28 29  1  0
 29 30  1  0
 29 31  2  0
 31  2  1  0
 12  7  1  0
 31 14  1  0
 24 19  1  0
M  END
$$$$
