
     RDKit          3D

 31 34  0  0  0  0  0  0  0  0999 V2000
    2.0876   -7.1494  -16.7248 O   0  0  0  0  0  0  0  0  0  0  0  0
    1.2023   -6.2619  -16.8219 C   0  0  0  0  0  0  0  0  0  0  0  0
    1.1358   -5.4159  -17.8606 N   0  0  0  0  0  0  0  0  0  0  0  0
    0.1697   -4.4579  -17.9525 C   0  0  0  0  0  0  0  0  0  0  0  0
    0.1814   -3.5685  -19.1412 C   0  0  0  0  0  0  0  0  0  0  0  0
   -0.9836   -4.0583  -20.4132 S   0  0  0  0  0  0  0  0  0  0  0  0
   -2.2168   -2.7789  -20.7481 C   0  0  0  0  0  0  0  0  0  0  0  0
   -1.6243   -1.8398  -21.8022 C   0  0  0  0  0  0  0  0  0  0  0  0
   -2.0477   -2.2651  -23.1915 C   0  0  0  0  0  0  0  0  0  0  0  0
   -2.0819   -3.6474  -23.3360 O   0  0  0  0  0  0  0  0  0  0  0  0
   -2.9894   -4.2692  -22.5077 C   0  0  0  0  0  0  0  0  0  0  0  0
   -3.4731   -3.3714  -21.3812 C   0  0  0  0  0  0  0  0  0  0  0  0
   -0.7354   -4.3594  -16.9812 N   0  0  0  0  0  0  0  0  0  0  0  0
   -0.7001   -5.1906  -15.9240 C   0  0  0  0  0  0  0  0  0  0  0  0
   -1.6268   -5.1131  -14.8983 C   0  0  0  0  0  0  0  0  0  0  0  0
   -1.6121   -5.9555  -13.8013 C   0  0  0  0  0  0  0  0  0  0  0  0
   -2.5239   -5.8858  -12.7840 O   0  0  0  0  0  0  0  0  0  0  0  0
   -2.6793   -6.8182  -11.7607 C   0  0  0  0  0  0  0  0  0  0  0  0
   -3.3496   -6.2178  -10.5407 C   0  0  0  0  0  0  0  0  0  0  0  0
   -4.7855   -5.9200  -10.9149 C   0  0  0  0  0  0  0  0  0  0  0  0
   -5.5433   -5.4001   -9.7116 C   0  0  0  0  0  0  0  0  0  0  0  0
   -5.4973   -6.4540   -8.6950 N   0  0  0  0  0  0  0  0  0  0  0  0
   -4.6989   -7.6104   -8.9809 C   0  0  0  0  0  0  0  0  0  0  0  0
   -3.3079   -7.2504   -9.4452 C   0  0  0  0  0  0  0  0  0  0  0  0
   -6.2336   -6.2763   -7.5029 C   0  0  0  0  0  0  0  0  0  0  0  0
   -6.1232   -7.2628   -6.3994 C   0  0  0  0  0  0  0  0  0  0  0  0
   -6.9892   -5.2964   -7.3456 O   0  0  0  0  0  0  0  0  0  0  0  0
   -0.6323   -6.9303  -13.7036 C   0  0  0  0  0  0  0  0  0  0  0  0
    0.3016   -7.0270  -14.7127 C   0  0  0  0  0  0  0  0  0  0  0  0
    1.2859   -7.9750  -14.6566 F   0  0  0  0  0  0  0  0  0  0  0  0
    0.2716   -6.1692  -15.8116 C   0  0  0  0  0  0  0  0  0  0  0  0
  1  2  2  0
  2  3  1  0
  3  4  1  0
  4  5  1  0
  5  6  1  0
  6  7  1  0
  7  8  1  0
  8  9  1  0
  9 10  1  0
 10 11  1  0
 11 12  1  0
  4 13  2  0
 13 14  1  0
 14 15  2  0
 15 16  1  0
 16 17  1  0
 17 18  1  0
 18 19  1  0
 19 20  1  0
 20 21  1  0
 21 22  1  0
 22 23  1  0
 23 24  1  0
 22 25  1  0
 25 26  1  0
 25 27  2  0
 16 28  2  0
 28 29  1  0
 29 30  1  0
 29 31  2  0
 31  2  1  0
 12  7  1  0
 31 14  1  0
 24 19  1  0
M  END
$$$$
