
     RDKit          3D

 31 34  0  0  0  0  0  0  0  0999 V2000
    1.3907   -7.6516  -16.0336 O   0  0  0  0  0  0  0  0  0  0  0  0
    0.4808   -6.7909  -15.9239 C   0  0  0  0  0  0  0  0  0  0  0  0
   -0.2472   -6.6449  -14.8068 N   0  0  0  0  0  0  0  0  0  0  0  0
   -1.2312   -5.7067  -14.7022 C   0  0  0  0  0  0  0  0  0  0  0  0
   -1.9822   -5.6244  -13.4241 C   0  0  0  0  0  0  0  0  0  0  0  0
   -1.0273   -4.9263  -12.0765 S   0  0  0  0  0  0  0  0  0  0  0  0
   -2.0211   -4.6708  -10.5875 C   0  0  0  0  0  0  0  0  0  0  0  0
   -1.1115   -4.9279   -9.3831 C   0  0  0  0  0  0  0  0  0  0  0  0
   -0.4954   -3.6341   -8.8962 C   0  0  0  0  0  0  0  0  0  0  0  0
   -0.1535   -2.7830   -9.9410 O   0  0  0  0  0  0  0  0  0  0  0  0
   -1.2288   -2.3742  -10.6978 C   0  0  0  0  0  0  0  0  0  0  0  0
   -2.4710   -3.2175  -10.4635 C   0  0  0  0  0  0  0  0  0  0  0  0
   -1.4769   -4.9111  -15.7409 N   0  0  0  0  0  0  0  0  0  0  0  0
   -0.7670   -5.0284  -16.8777 C   0  0  0  0  0  0  0  0  0  0  0  0
   -0.9988   -4.2162  -17.9747 C   0  0  0  0  0  0  0  0  0  0  0  0
   -0.2832   -4.3168  -19.1541 C   0  0  0  0  0  0  0  0  0  0  0  0
   -0.5056   -3.5183  -20.2423 O   0  0  0  0  0  0  0  0  0  0  0  0
    0.4737   -2.9732  -21.0695 C   0  0  0  0  0  0  0  0  0  0  0  0
   -0.1245   -2.1583  -22.1993 C   0  0  0  0  0  0  0  0  0  0  0  0
   -0.9009   -1.0200  -21.5731 C   0  0  0  0  0  0  0  0  0  0  0  0
   -1.4529   -0.1085  -22.6488 C   0  0  0  0  0  0  0  0  0  0  0  0
   -0.3032    0.4155  -23.3901 N   0  0  0  0  0  0  0  0  0  0  0  0
    0.9903   -0.1037  -23.0527 C   0  0  0  0  0  0  0  0  0  0  0  0
    1.0151   -1.6131  -23.0190 C   0  0  0  0  0  0  0  0  0  0  0  0
   -0.5282    1.3925  -24.3849 C   0  0  0  0  0  0  0  0  0  0  0  0
   -1.7409    2.2470  -24.3359 C   0  0  0  0  0  0  0  0  0  0  0  0
    0.2768    1.5630  -25.3224 O   0  0  0  0  0  0  0  0  0  0  0  0
    0.7175   -5.2687  -19.2650 C   0  0  0  0  0  0  0  0  0  0  0  0
    0.9668   -6.0891  -18.1859 C   0  0  0  0  0  0  0  0  0  0  0  0
    1.9457   -7.0421  -18.2522 F   0  0  0  0  0  0  0  0  0  0  0  0
    0.2354   -5.9736  -17.0043 C   0  0  0  0  0  0  0  0  0  0  0  0
  1  2  2  0
  2  3  1  0
  3  4  1  0
  4  5  1  0
  5  6  1  0
  6  7  1  0
  7  8  1  0
  8  9  1  0
  9 10  1  0
 10 11  1  0
 11 12  1  0
  4 13  2  0
 13 14  1  0
 14 15  2  0
 15 16  1  0
 16 17  1  0
 17 18  1  0
 18 19  1  0
 19 20  1  0
 20 21  1  0
 21 22  1  0
 22 23  1  0
 23 24  1  0
 22 25  1  0
 25 26  1  0
 25 27  2  0
 16 28  2  0
 28 29  1  0
 29 30  1  0
 29 31  2  0
 31  2  1  0
 12  7  1  0
 31 14  1  0
 24 19  1  0
M  END
$$$$
