
     RDKit          3D

 31 34  0  0  0  0  0  0  0  0999 V2000
    1.4933   -7.8530  -15.9425 O   0  0  0  0  0  0  0  0  0  0  0  0
    0.6432   -6.9353  -15.8166 C   0  0  0  0  0  0  0  0  0  0  0  0
   -0.0317   -6.7246  -14.6767 N   0  0  0  0  0  0  0  0  0  0  0  0
   -0.9512   -5.7251  -14.5548 C   0  0  0  0  0  0  0  0  0  0  0  0
   -1.6469   -5.5737  -13.2519 C   0  0  0  0  0  0  0  0  0  0  0  0
   -1.9796   -7.1334  -12.4325 S   0  0  0  0  0  0  0  0  0  0  0  0
   -3.7502   -7.4548  -12.2548 C   0  0  0  0  0  0  0  0  0  0  0  0
   -3.9193   -8.9588  -12.0237 C   0  0  0  0  0  0  0  0  0  0  0  0
   -3.9651   -9.2674  -10.5428 C   0  0  0  0  0  0  0  0  0  0  0  0
   -3.0870   -8.4780   -9.8088 O   0  0  0  0  0  0  0  0  0  0  0  0
   -3.3643   -7.1309   -9.8757 C   0  0  0  0  0  0  0  0  0  0  0  0
   -4.3143   -6.7786  -11.0080 C   0  0  0  0  0  0  0  0  0  0  0  0
   -1.1864   -4.9340  -15.5993 N   0  0  0  0  0  0  0  0  0  0  0  0
   -0.5285   -5.1153  -16.7588 C   0  0  0  0  0  0  0  0  0  0  0  0
   -0.7510   -4.3095  -17.8625 C   0  0  0  0  0  0  0  0  0  0  0  0
   -0.0881   -4.4753  -19.0651 C   0  0  0  0  0  0  0  0  0  0  0  0
   -0.3017   -3.6836  -20.1599 O   0  0  0  0  0  0  0  0  0  0  0  0
    0.3391   -2.4773  -20.4335 C   0  0  0  0  0  0  0  0  0  0  0  0
    0.0694   -1.9970  -21.8459 C   0  0  0  0  0  0  0  0  0  0  0  0
   -1.3864   -1.5889  -21.9137 C   0  0  0  0  0  0  0  0  0  0  0  0
   -1.7052   -1.0109  -23.2765 C   0  0  0  0  0  0  0  0  0  0  0  0
   -0.8458    0.1627  -23.4499 N   0  0  0  0  0  0  0  0  0  0  0  0
    0.1297    0.4209  -22.4310 C   0  0  0  0  0  0  0  0  0  0  0  0
    0.9503   -0.8013  -22.0951 C   0  0  0  0  0  0  0  0  0  0  0  0
   -1.0228    0.9670  -24.5973 C   0  0  0  0  0  0  0  0  0  0  0  0
   -0.1811    2.1716  -24.8057 C   0  0  0  0  0  0  0  0  0  0  0  0
   -1.8821    0.6909  -25.4583 O   0  0  0  0  0  0  0  0  0  0  0  0
    0.8471   -5.4896  -19.1937 C   0  0  0  0  0  0  0  0  0  0  0  0
    1.0858   -6.3050  -18.1083 C   0  0  0  0  0  0  0  0  0  0  0  0
    2.0008   -7.3183  -18.1915 F   0  0  0  0  0  0  0  0  0  0  0  0
    0.4081   -6.1234  -16.9033 C   0  0  0  0  0  0  0  0  0  0  0  0
  1  2  2  0
  2  3  1  0
  3  4  1  0
  4  5  1  0
  5  6  1  0
  6  7  1  0
  7  8  1  0
  8  9  1  0
  9 10  1  0
 10 11  1  0
 11 12  1  0
  4 13  2  0
 13 14  1  0
 14 15  2  0
 15 16  1  0
 16 17  1  0
 17 18  1  0
 18 19  1  0
 19 20  1  0
 20 21  1  0
 21 22  1  0
 22 23  1  0
 23 24  1  0
 22 25  1  0
 25 26  1  0
 25 27  2  0
 16 28  2  0
 28 29  1  0
 29 30  1  0
 29 31  2  0
 31  2  1  0
 12  7  1  0
 31 14  1  0
 24 19  1  0
M  END
$$$$
