
     RDKit          3D

 31 34  0  0  0  0  0  0  0  0999 V2000
    1.8857   -7.5491  -16.3969 O   0  0  0  0  0  0  0  0  0  0  0  0
    1.1396   -6.5616  -16.6182 C   0  0  0  0  0  0  0  0  0  0  0  0
    1.2916   -5.7638  -17.6857 N   0  0  0  0  0  0  0  0  0  0  0  0
    0.4745   -4.6959  -17.9128 C   0  0  0  0  0  0  0  0  0  0  0  0
    0.7247   -3.8722  -19.1225 C   0  0  0  0  0  0  0  0  0  0  0  0
   -0.6045   -2.7287  -19.4972 S   0  0  0  0  0  0  0  0  0  0  0  0
   -1.5816   -3.2519  -20.9261 C   0  0  0  0  0  0  0  0  0  0  0  0
   -2.6856   -2.2107  -21.1290 C   0  0  0  0  0  0  0  0  0  0  0  0
   -2.2474   -1.1582  -22.1243 C   0  0  0  0  0  0  0  0  0  0  0  0
   -0.9039   -0.8274  -21.9898 O   0  0  0  0  0  0  0  0  0  0  0  0
   -0.0475   -1.8805  -22.2221 C   0  0  0  0  0  0  0  0  0  0  0  0
   -0.7499   -3.2278  -22.2058 C   0  0  0  0  0  0  0  0  0  0  0  0
   -0.5042   -4.4373  -17.0482 N   0  0  0  0  0  0  0  0  0  0  0  0
   -0.6870   -5.2155  -15.9662 C   0  0  0  0  0  0  0  0  0  0  0  0
   -1.6954   -4.9724  -15.0492 C   0  0  0  0  0  0  0  0  0  0  0  0
   -1.9039   -5.7571  -13.9295 C   0  0  0  0  0  0  0  0  0  0  0  0
   -2.8978   -5.5240  -13.0190 O   0  0  0  0  0  0  0  0  0  0  0  0
   -3.5600   -6.4915  -12.2666 C   0  0  0  0  0  0  0  0  0  0  0  0
   -3.7150   -6.0773  -10.8166 C   0  0  0  0  0  0  0  0  0  0  0  0
   -4.6291   -4.8715  -10.7866 C   0  0  0  0  0  0  0  0  0  0  0  0
   -4.9025   -4.4571   -9.3561 C   0  0  0  0  0  0  0  0  0  0  0  0
   -5.5518   -5.5960   -8.7025 N   0  0  0  0  0  0  0  0  0  0  0  0
   -5.6652   -6.8109   -9.4560 C   0  0  0  0  0  0  0  0  0  0  0  0
   -4.3553   -7.2257  -10.0821 C   0  0  0  0  0  0  0  0  0  0  0  0
   -6.0258   -5.4376   -7.3815 C   0  0  0  0  0  0  0  0  0  0  0  0
   -6.1612   -4.0826   -6.7910 C   0  0  0  0  0  0  0  0  0  0  0  0
   -6.3404   -6.4209   -6.6815 O   0  0  0  0  0  0  0  0  0  0  0  0
   -1.0762   -6.8432  -13.6946 C   0  0  0  0  0  0  0  0  0  0  0  0
   -0.0649   -7.1055  -14.5937 C   0  0  0  0  0  0  0  0  0  0  0  0
    0.7751   -8.1675  -14.4004 F   0  0  0  0  0  0  0  0  0  0  0  0
    0.1308   -6.3036  -15.7174 C   0  0  0  0  0  0  0  0  0  0  0  0
  1  2  2  0
  2  3  1  0
  3  4  1  0
  4  5  1  0
  5  6  1  0
  6  7  1  0
  7  8  1  0
  8  9  1  0
  9 10  1  0
 10 11  1  0
 11 12  1  0
  4 13  2  0
 13 14  1  0
 14 15  2  0
 15 16  1  0
 16 17  1  0
 17 18  1  0
 18 19  1  0
 19 20  1  0
 20 21  1  0
 21 22  1  0
 22 23  1  0
 23 24  1  0
 22 25  1  0
 25 26  1  0
 25 27  2  0
 16 28  2  0
 28 29  1  0
 29 30  1  0
 29 31  2  0
 31  2  1  0
 12  7  1  0
 31 14  1  0
 24 19  1  0
M  END
$$$$
