
     RDKit          3D

 31 34  0  0  0  0  0  0  0  0999 V2000
    1.8530   -7.4736  -16.2587 O   0  0  0  0  0  0  0  0  0  0  0  0
    1.0849   -6.5366  -16.5948 C   0  0  0  0  0  0  0  0  0  0  0  0
    1.2281   -5.8594  -17.7437 N   0  0  0  0  0  0  0  0  0  0  0  0
    0.3872   -4.8451  -18.0952 C   0  0  0  0  0  0  0  0  0  0  0  0
    0.6294   -4.1555  -19.3875 C   0  0  0  0  0  0  0  0  0  0  0  0
   -0.1716   -2.5557  -19.5063 S   0  0  0  0  0  0  0  0  0  0  0  0
   -1.7058   -2.6222  -20.4612 C   0  0  0  0  0  0  0  0  0  0  0  0
   -2.3443   -1.2323  -20.3949 C   0  0  0  0  0  0  0  0  0  0  0  0
   -1.9274   -0.3982  -21.5870 C   0  0  0  0  0  0  0  0  0  0  0  0
   -0.6012   -0.6108  -21.9456 O   0  0  0  0  0  0  0  0  0  0  0  0
   -0.3326   -1.9039  -22.3354 C   0  0  0  0  0  0  0  0  0  0  0  0
   -1.4281   -2.8799  -21.9399 C   0  0  0  0  0  0  0  0  0  0  0  0
   -0.6066   -4.5169  -17.2724 N   0  0  0  0  0  0  0  0  0  0  0  0
   -0.7813   -5.1739  -16.1115 C   0  0  0  0  0  0  0  0  0  0  0  0
   -1.8050   -4.8560  -15.2352 C   0  0  0  0  0  0  0  0  0  0  0  0
   -2.0056   -5.5159  -14.0363 C   0  0  0  0  0  0  0  0  0  0  0  0
   -3.0144   -5.2083  -13.1652 O   0  0  0  0  0  0  0  0  0  0  0  0
   -2.9083   -5.1575  -11.7771 C   0  0  0  0  0  0  0  0  0  0  0  0
   -4.1564   -5.6773  -11.0914 C   0  0  0  0  0  0  0  0  0  0  0  0
   -3.7930   -6.9859  -10.4235 C   0  0  0  0  0  0  0  0  0  0  0  0
   -4.9736   -7.5192   -9.6396 C   0  0  0  0  0  0  0  0  0  0  0  0
   -5.2989   -6.5117   -8.6270 N   0  0  0  0  0  0  0  0  0  0  0  0
   -4.5737   -5.2754   -8.6713 C   0  0  0  0  0  0  0  0  0  0  0  0
   -4.5589   -4.6645  -10.0521 C   0  0  0  0  0  0  0  0  0  0  0  0
   -6.2971   -6.8094   -7.6731 C   0  0  0  0  0  0  0  0  0  0  0  0
   -6.7936   -5.7554   -6.7536 C   0  0  0  0  0  0  0  0  0  0  0  0
   -6.7841   -7.9538   -7.5774 O   0  0  0  0  0  0  0  0  0  0  0  0
   -1.1536   -6.5471  -13.6750 C   0  0  0  0  0  0  0  0  0  0  0  0
   -0.1268   -6.8819  -14.5313 C   0  0  0  0  0  0  0  0  0  0  0  0
    0.7373   -7.8936  -14.2141 F   0  0  0  0  0  0  0  0  0  0  0  0
    0.0607   -6.2058  -15.7363 C   0  0  0  0  0  0  0  0  0  0  0  0
  1  2  2  0
  2  3  1  0
  3  4  1  0
  4  5  1  0
  5  6  1  0
  6  7  1  0
  7  8  1  0
  8  9  1  0
  9 10  1  0
 10 11  1  0
 11 12  1  0
  4 13  2  0
 13 14  1  0
 14 15  2  0
 15 16  1  0
 16 17  1  0
 17 18  1  0
 18 19  1  0
 19 20  1  0
 20 21  1  0
 21 22  1  0
 22 23  1  0
 23 24  1  0
 22 25  1  0
 25 26  1  0
 25 27  2  0
 16 28  2  0
 28 29  1  0
 29 30  1  0
 29 31  2  0
 31  2  1  0
 12  7  1  0
 31 14  1  0
 24 19  1  0
M  END
$$$$
