
     RDKit          3D

 31 34  0  0  0  0  0  0  0  0999 V2000
    1.6233   -7.3447  -17.0168 O   0  0  0  0  0  0  0  0  0  0  0  0
    0.7439   -6.4549  -17.1424 C   0  0  0  0  0  0  0  0  0  0  0  0
    0.4603   -5.8780  -18.3197 N   0  0  0  0  0  0  0  0  0  0  0  0
   -0.4964   -4.9139  -18.4409 C   0  0  0  0  0  0  0  0  0  0  0  0
   -0.7357   -4.3354  -19.7871 C   0  0  0  0  0  0  0  0  0  0  0  0
    0.7634   -4.1019  -20.7426 S   0  0  0  0  0  0  0  0  0  0  0  0
    1.5095   -2.4776  -20.4686 C   0  0  0  0  0  0  0  0  0  0  0  0
    2.7498   -2.3894  -21.3620 C   0  0  0  0  0  0  0  0  0  0  0  0
    2.4078   -1.7364  -22.6837 C   0  0  0  0  0  0  0  0  0  0  0  0
    1.1556   -2.1148  -23.1543 O   0  0  0  0  0  0  0  0  0  0  0  0
    0.1182   -1.7497  -22.3256 C   0  0  0  0  0  0  0  0  0  0  0  0
    0.5841   -1.3564  -20.9338 C   0  0  0  0  0  0  0  0  0  0  0  0
   -1.1697   -4.5336  -17.3572 N   0  0  0  0  0  0  0  0  0  0  0  0
   -0.9125   -5.0898  -16.1596 C   0  0  0  0  0  0  0  0  0  0  0  0
   -1.5954   -4.7156  -15.0148 C   0  0  0  0  0  0  0  0  0  0  0  0
   -1.3497   -5.2720  -13.7725 C   0  0  0  0  0  0  0  0  0  0  0  0
   -2.0199   -4.9082  -12.6368 O   0  0  0  0  0  0  0  0  0  0  0  0
   -1.4465   -4.3715  -11.4863 C   0  0  0  0  0  0  0  0  0  0  0  0
   -2.4678   -4.1633  -10.3854 C   0  0  0  0  0  0  0  0  0  0  0  0
   -1.7325   -4.2482   -9.0653 C   0  0  0  0  0  0  0  0  0  0  0  0
   -2.6786   -3.9580   -7.9193 C   0  0  0  0  0  0  0  0  0  0  0  0
   -3.1874   -2.5997   -8.1244 N   0  0  0  0  0  0  0  0  0  0  0  0
   -2.8141   -1.9327   -9.3378 C   0  0  0  0  0  0  0  0  0  0  0  0
   -3.0506   -2.7858  -10.5611 C   0  0  0  0  0  0  0  0  0  0  0  0
   -4.0080   -2.0272   -7.1276 C   0  0  0  0  0  0  0  0  0  0  0  0
   -4.6636   -0.7156   -7.3581 C   0  0  0  0  0  0  0  0  0  0  0  0
   -4.2028   -2.6011   -6.0373 O   0  0  0  0  0  0  0  0  0  0  0  0
   -0.3785   -6.2519  -13.6445 C   0  0  0  0  0  0  0  0  0  0  0  0
    0.3148   -6.6412  -14.7704 C   0  0  0  0  0  0  0  0  0  0  0  0
    1.2817   -7.6052  -14.6893 F   0  0  0  0  0  0  0  0  0  0  0  0
    0.0540   -6.0694  -16.0151 C   0  0  0  0  0  0  0  0  0  0  0  0
  1  2  2  0
  2  3  1  0
  3  4  1  0
  4  5  1  0
  5  6  1  0
  6  7  1  0
  7  8  1  0
  8  9  1  0
  9 10  1  0
 10 11  1  0
 11 12  1  0
  4 13  2  0
 13 14  1  0
 14 15  2  0
 15 16  1  0
 16 17  1  0
 17 18  1  0
 18 19  1  0
 19 20  1  0
 20 21  1  0
 21 22  1  0
 22 23  1  0
 23 24  1  0
 22 25  1  0
 25 26  1  0
 25 27  2  0
 16 28  2  0
 28 29  1  0
 29 30  1  0
 29 31  2  0
 31  2  1  0
 12  7  1  0
 31 14  1  0
 24 19  1  0
M  END
$$$$
