
     RDKit          3D

 31 34  0  0  0  0  0  0  0  0999 V2000
    1.4266   -7.7481  -15.9353 O   0  0  0  0  0  0  0  0  0  0  0  0
    0.8473   -6.8559  -16.6055 C   0  0  0  0  0  0  0  0  0  0  0  0
    1.0360   -6.7037  -17.9248 N   0  0  0  0  0  0  0  0  0  0  0  0
    0.4007   -5.7313  -18.6389 C   0  0  0  0  0  0  0  0  0  0  0  0
    0.6769   -5.6433  -20.0950 C   0  0  0  0  0  0  0  0  0  0  0  0
    1.3572   -4.0632  -20.6004 S   0  0  0  0  0  0  0  0  0  0  0  0
    0.2746   -2.6787  -20.1746 C   0  0  0  0  0  0  0  0  0  0  0  0
    0.8921   -1.4149  -20.7793 C   0  0  0  0  0  0  0  0  0  0  0  0
    0.3023   -1.1359  -22.1448 C   0  0  0  0  0  0  0  0  0  0  0  0
    0.0790   -2.2983  -22.8740 O   0  0  0  0  0  0  0  0  0  0  0  0
   -0.8279   -3.1539  -22.2895 C   0  0  0  0  0  0  0  0  0  0  0  0
   -1.0960   -2.8241  -20.8306 C   0  0  0  0  0  0  0  0  0  0  0  0
   -0.4327   -4.9074  -18.0072 N   0  0  0  0  0  0  0  0  0  0  0  0
   -0.6468   -5.0298  -16.6847 C   0  0  0  0  0  0  0  0  0  0  0  0
   -1.5071   -4.1887  -15.9996 C   0  0  0  0  0  0  0  0  0  0  0  0
   -1.7441   -4.2938  -14.6410 C   0  0  0  0  0  0  0  0  0  0  0  0
   -2.5925   -3.4672  -13.9567 O   0  0  0  0  0  0  0  0  0  0  0  0
   -2.3967   -2.9833  -12.6652 C   0  0  0  0  0  0  0  0  0  0  0  0
   -3.3347   -1.8380  -12.3383 C   0  0  0  0  0  0  0  0  0  0  0  0
   -2.8028   -1.1597  -11.0943 C   0  0  0  0  0  0  0  0  0  0  0  0
   -3.6430    0.0549  -10.7602 C   0  0  0  0  0  0  0  0  0  0  0  0
   -3.5493    0.9624  -11.9064 N   0  0  0  0  0  0  0  0  0  0  0  0
   -2.8449    0.4915  -13.0634 C   0  0  0  0  0  0  0  0  0  0  0  0
   -3.3032   -0.8795  -13.4994 C   0  0  0  0  0  0  0  0  0  0  0  0
   -4.1502    2.2369  -11.8108 C   0  0  0  0  0  0  0  0  0  0  0  0
   -4.0981    3.1784  -12.9571 C   0  0  0  0  0  0  0  0  0  0  0  0
   -4.7352    2.6034  -10.7718 O   0  0  0  0  0  0  0  0  0  0  0  0
   -1.1008   -5.2803  -13.9112 C   0  0  0  0  0  0  0  0  0  0  0  0
   -0.2393   -6.1301  -14.5714 C   0  0  0  0  0  0  0  0  0  0  0  0
    0.4163   -7.1181  -13.8897 F   0  0  0  0  0  0  0  0  0  0  0  0
   -0.0123   -6.0096  -15.9418 C   0  0  0  0  0  0  0  0  0  0  0  0
  1  2  2  0
  2  3  1  0
  3  4  1  0
  4  5  1  0
  5  6  1  0
  6  7  1  0
  7  8  1  0
  8  9  1  0
  9 10  1  0
 10 11  1  0
 11 12  1  0
  4 13  2  0
 13 14  1  0
 14 15  2  0
 15 16  1  0
 16 17  1  0
 17 18  1  0
 18 19  1  0
 19 20  1  0
 20 21  1  0
 21 22  1  0
 22 23  1  0
 23 24  1  0
 22 25  1  0
 25 26  1  0
 25 27  2  0
 16 28  2  0
 28 29  1  0
 29 30  1  0
 29 31  2  0
 31  2  1  0
 12  7  1  0
 31 14  1  0
 24 19  1  0
M  END
$$$$
