
     RDKit          3D

 31 34  0  0  0  0  0  0  0  0999 V2000
    1.7457   -7.1943  -16.4710 O   0  0  0  0  0  0  0  0  0  0  0  0
    0.7972   -6.4149  -16.7425 C   0  0  0  0  0  0  0  0  0  0  0  0
    0.5855   -5.9340  -17.9767 N   0  0  0  0  0  0  0  0  0  0  0  0
   -0.4476   -5.0892  -18.2565 C   0  0  0  0  0  0  0  0  0  0  0  0
   -0.5972   -4.6105  -19.6539 C   0  0  0  0  0  0  0  0  0  0  0  0
    0.9421   -4.0604  -20.3906 S   0  0  0  0  0  0  0  0  0  0  0  0
    1.1839   -2.2755  -20.2303 C   0  0  0  0  0  0  0  0  0  0  0  0
    2.2609   -1.8691  -21.2399 C   0  0  0  0  0  0  0  0  0  0  0  0
    1.6289   -1.4184  -22.5391 C   0  0  0  0  0  0  0  0  0  0  0  0
    0.5144   -2.1771  -22.8783 O   0  0  0  0  0  0  0  0  0  0  0  0
   -0.5119   -2.0943  -21.9640 C   0  0  0  0  0  0  0  0  0  0  0  0
   -0.0720   -1.5071  -20.6334 C   0  0  0  0  0  0  0  0  0  0  0  0
   -1.2717   -4.7306  -17.2743 N   0  0  0  0  0  0  0  0  0  0  0  0
   -1.0906   -5.1929  -16.0239 C   0  0  0  0  0  0  0  0  0  0  0  0
   -1.9301   -4.8384  -14.9817 C   0  0  0  0  0  0  0  0  0  0  0  0
   -1.7652   -5.2997  -13.6881 C   0  0  0  0  0  0  0  0  0  0  0  0
   -2.5901   -4.9546  -12.6530 O   0  0  0  0  0  0  0  0  0  0  0  0
   -2.7155   -3.6834  -12.0970 C   0  0  0  0  0  0  0  0  0  0  0  0
   -2.4823   -3.6919  -10.5990 C   0  0  0  0  0  0  0  0  0  0  0  0
   -1.4931   -2.5891  -10.2897 C   0  0  0  0  0  0  0  0  0  0  0  0
   -1.2816   -2.4796   -8.7943 C   0  0  0  0  0  0  0  0  0  0  0  0
   -2.5852   -2.1651   -8.2047 N   0  0  0  0  0  0  0  0  0  0  0  0
   -3.7199   -2.1562   -9.0816 C   0  0  0  0  0  0  0  0  0  0  0  0
   -3.8010   -3.4010   -9.9324 C   0  0  0  0  0  0  0  0  0  0  0  0
   -2.6530   -1.8904   -6.8209 C   0  0  0  0  0  0  0  0  0  0  0  0
   -1.4201   -1.5713   -6.0586 C   0  0  0  0  0  0  0  0  0  0  0  0
   -3.7388   -1.9082   -6.2071 O   0  0  0  0  0  0  0  0  0  0  0  0
   -0.7168   -6.1582  -13.3991 C   0  0  0  0  0  0  0  0  0  0  0  0
    0.1326   -6.5256  -14.4206 C   0  0  0  0  0  0  0  0  0  0  0  0
    1.1802   -7.3713  -14.1796 F   0  0  0  0  0  0  0  0  0  0  0  0
   -0.0487   -6.0508  -15.7191 C   0  0  0  0  0  0  0  0  0  0  0  0
  1  2  2  0
  2  3  1  0
  3  4  1  0
  4  5  1  0
  5  6  1  0
  6  7  1  0
  7  8  1  0
  8  9  1  0
  9 10  1  0
 10 11  1  0
 11 12  1  0
  4 13  2  0
 13 14  1  0
 14 15  2  0
 15 16  1  0
 16 17  1  0
 17 18  1  0
 18 19  1  0
 19 20  1  0
 20 21  1  0
 21 22  1  0
 22 23  1  0
 23 24  1  0
 22 25  1  0
 25 26  1  0
 25 27  2  0
 16 28  2  0
 28 29  1  0
 29 30  1  0
 29 31  2  0
 31  2  1  0
 12  7  1  0
 31 14  1  0
 24 19  1  0
M  END
$$$$
