
     RDKit          3D

 31 34  0  0  0  0  0  0  0  0999 V2000
    1.6061   -7.7576  -16.1274 O   0  0  0  0  0  0  0  0  0  0  0  0
    1.0383   -6.7332  -16.5844 C   0  0  0  0  0  0  0  0  0  0  0  0
    1.3658   -6.1901  -17.7664 N   0  0  0  0  0  0  0  0  0  0  0  0
    0.7411   -5.0784  -18.2495 C   0  0  0  0  0  0  0  0  0  0  0  0
    1.1762   -4.5524  -19.5679 C   0  0  0  0  0  0  0  0  0  0  0  0
   -0.1814   -4.2348  -20.6954 S   0  0  0  0  0  0  0  0  0  0  0  0
   -1.1014   -2.7394  -20.2626 C   0  0  0  0  0  0  0  0  0  0  0  0
   -0.4396   -1.5692  -20.9953 C   0  0  0  0  0  0  0  0  0  0  0  0
   -1.1276   -1.3130  -22.3187 C   0  0  0  0  0  0  0  0  0  0  0  0
   -1.5129   -2.4887  -22.9528 O   0  0  0  0  0  0  0  0  0  0  0  0
   -2.4299   -3.2284  -22.2400 C   0  0  0  0  0  0  0  0  0  0  0  0
   -2.5340   -2.7984  -20.7863 C   0  0  0  0  0  0  0  0  0  0  0  0
   -0.2237   -4.5148  -17.5257 N   0  0  0  0  0  0  0  0  0  0  0  0
   -0.5791   -5.0316  -16.3355 C   0  0  0  0  0  0  0  0  0  0  0  0
   -1.5781   -4.4685  -15.5598 C   0  0  0  0  0  0  0  0  0  0  0  0
   -1.9617   -4.9804  -14.3334 C   0  0  0  0  0  0  0  0  0  0  0  0
   -2.9476   -4.4304  -13.5611 O   0  0  0  0  0  0  0  0  0  0  0  0
   -3.1420   -4.6575  -12.2005 C   0  0  0  0  0  0  0  0  0  0  0  0
   -2.2487   -3.7818  -11.3440 C   0  0  0  0  0  0  0  0  0  0  0  0
   -2.9680   -2.4659  -11.1399 C   0  0  0  0  0  0  0  0  0  0  0  0
   -2.1708   -1.5715  -10.2140 C   0  0  0  0  0  0  0  0  0  0  0  0
   -2.0516   -2.2821   -8.9384 N   0  0  0  0  0  0  0  0  0  0  0  0
   -2.5611   -3.6213   -8.8804 C   0  0  0  0  0  0  0  0  0  0  0  0
   -2.0646   -4.4772  -10.0210 C   0  0  0  0  0  0  0  0  0  0  0  0
   -1.4489   -1.6173   -7.8477 C   0  0  0  0  0  0  0  0  0  0  0  0
   -1.3201   -2.2963   -6.5342 C   0  0  0  0  0  0  0  0  0  0  0  0
   -1.0128   -0.4536   -7.9563 O   0  0  0  0  0  0  0  0  0  0  0  0
   -1.3297   -6.1098  -13.8385 C   0  0  0  0  0  0  0  0  0  0  0  0
   -0.3318   -6.6885  -14.5930 C   0  0  0  0  0  0  0  0  0  0  0  0
    0.3181   -7.8044  -14.1424 F   0  0  0  0  0  0  0  0  0  0  0  0
    0.0421   -6.1587  -15.8274 C   0  0  0  0  0  0  0  0  0  0  0  0
  1  2  2  0
  2  3  1  0
  3  4  1  0
  4  5  1  0
  5  6  1  0
  6  7  1  0
  7  8  1  0
  8  9  1  0
  9 10  1  0
 10 11  1  0
 11 12  1  0
  4 13  2  0
 13 14  1  0
 14 15  2  0
 15 16  1  0
 16 17  1  0
 17 18  1  0
 18 19  1  0
 19 20  1  0
 20 21  1  0
 21 22  1  0
 22 23  1  0
 23 24  1  0
 22 25  1  0
 25 26  1  0
 25 27  2  0
 16 28  2  0
 28 29  1  0
 29 30  1  0
 29 31  2  0
 31  2  1  0
 12  7  1  0
 31 14  1  0
 24 19  1  0
M  END
$$$$
