
     RDKit          3D

 31 34  0  0  0  0  0  0  0  0999 V2000
    1.5099   -7.7205  -16.2162 O   0  0  0  0  0  0  0  0  0  0  0  0
    0.8464   -6.8269  -16.8011 C   0  0  0  0  0  0  0  0  0  0  0  0
    0.8959   -6.6398  -18.1284 N   0  0  0  0  0  0  0  0  0  0  0  0
    0.1704   -5.6663  -18.7491 C   0  0  0  0  0  0  0  0  0  0  0  0
    0.2942   -5.5381  -20.2231 C   0  0  0  0  0  0  0  0  0  0  0  0
    1.3634   -4.1937  -20.7374 S   0  0  0  0  0  0  0  0  0  0  0  0
    0.6769   -2.5717  -20.3279 C   0  0  0  0  0  0  0  0  0  0  0  0
    1.6990   -1.5201  -20.7678 C   0  0  0  0  0  0  0  0  0  0  0  0
    1.3868   -1.0265  -22.1639 C   0  0  0  0  0  0  0  0  0  0  0  0
    0.9330   -2.0428  -22.9970 O   0  0  0  0  0  0  0  0  0  0  0  0
   -0.2453   -2.6189  -22.5777 C   0  0  0  0  0  0  0  0  0  0  0  0
   -0.5862   -2.2840  -21.1353 C   0  0  0  0  0  0  0  0  0  0  0  0
   -0.6111   -4.8771  -18.0151 N   0  0  0  0  0  0  0  0  0  0  0  0
   -0.6861   -5.0352  -16.6812 C   0  0  0  0  0  0  0  0  0  0  0  0
   -1.4893   -4.2307  -15.8909 C   0  0  0  0  0  0  0  0  0  0  0  0
   -1.5837   -4.3729  -14.5183 C   0  0  0  0  0  0  0  0  0  0  0  0
   -2.3749   -3.5826  -13.7304 O   0  0  0  0  0  0  0  0  0  0  0  0
   -1.9685   -2.4327  -13.0572 C   0  0  0  0  0  0  0  0  0  0  0  0
   -2.9223   -2.0607  -11.9391 C   0  0  0  0  0  0  0  0  0  0  0  0
   -2.1274   -1.2954  -10.9033 C   0  0  0  0  0  0  0  0  0  0  0  0
   -3.0395   -0.8114   -9.7958 C   0  0  0  0  0  0  0  0  0  0  0  0
   -4.0312    0.0686  -10.4188 N   0  0  0  0  0  0  0  0  0  0  0  0
   -4.0114    0.1750  -11.8488 C   0  0  0  0  0  0  0  0  0  0  0  0
   -3.9878   -1.1737  -12.5273 C   0  0  0  0  0  0  0  0  0  0  0  0
   -4.9421    0.7567   -9.5872 C   0  0  0  0  0  0  0  0  0  0  0  0
   -5.9157    1.7127  -10.1712 C   0  0  0  0  0  0  0  0  0  0  0  0
   -4.9540    0.5823   -8.3521 O   0  0  0  0  0  0  0  0  0  0  0  0
   -0.8484   -5.3607  -13.8832 C   0  0  0  0  0  0  0  0  0  0  0  0
   -0.0413   -6.1743  -14.6491 C   0  0  0  0  0  0  0  0  0  0  0  0
    0.7014   -7.1621  -14.0631 F   0  0  0  0  0  0  0  0  0  0  0  0
    0.0417   -6.0167  -16.0320 C   0  0  0  0  0  0  0  0  0  0  0  0
  1  2  2  0
  2  3  1  0
  3  4  1  0
  4  5  1  0
  5  6  1  0
  6  7  1  0
  7  8  1  0
  8  9  1  0
  9 10  1  0
 10 11  1  0
 11 12  1  0
  4 13  2  0
 13 14  1  0
 14 15  2  0
 15 16  1  0
 16 17  1  0
 17 18  1  0
 18 19  1  0
 19 20  1  0
 20 21  1  0
 21 22  1  0
 22 23  1  0
 23 24  1  0
 22 25  1  0
 25 26  1  0
 25 27  2  0
 16 28  2  0
 28 29  1  0
 29 30  1  0
 29 31  2  0
 31  2  1  0
 12  7  1  0
 31 14  1  0
 24 19  1  0
M  END
$$$$
