
     RDKit          3D

 31 34  0  0  0  0  0  0  0  0999 V2000
    1.7395   -7.4994  -16.1419 O   0  0  0  0  0  0  0  0  0  0  0  0
    0.7577   -6.7341  -15.9656 C   0  0  0  0  0  0  0  0  0  0  0  0
    0.0662   -6.6960  -14.8168 N   0  0  0  0  0  0  0  0  0  0  0  0
   -0.9969   -5.8606  -14.6399 C   0  0  0  0  0  0  0  0  0  0  0  0
   -1.6984   -5.8933  -13.3318 C   0  0  0  0  0  0  0  0  0  0  0  0
   -1.1441   -4.6266  -12.1903 S   0  0  0  0  0  0  0  0  0  0  0  0
   -2.0037   -4.7065  -10.6014 C   0  0  0  0  0  0  0  0  0  0  0  0
   -0.9714   -5.1092   -9.5448 C   0  0  0  0  0  0  0  0  0  0  0  0
   -0.3803   -3.8825   -8.8842 C   0  0  0  0  0  0  0  0  0  0  0  0
   -0.1842   -2.8390   -9.7817 O   0  0  0  0  0  0  0  0  0  0  0  0
   -1.3466   -2.3777  -10.3583 C   0  0  0  0  0  0  0  0  0  0  0  0
   -2.5150   -3.3321  -10.1775 C   0  0  0  0  0  0  0  0  0  0  0  0
   -1.3596   -5.0580  -15.6382 N   0  0  0  0  0  0  0  0  0  0  0  0
   -0.6898   -5.0686  -16.8048 C   0  0  0  0  0  0  0  0  0  0  0  0
   -1.0427   -4.2463  -17.8612 C   0  0  0  0  0  0  0  0  0  0  0  0
   -0.3705   -4.2384  -19.0701 C   0  0  0  0  0  0  0  0  0  0  0  0
   -0.7125   -3.4291  -20.1185 O   0  0  0  0  0  0  0  0  0  0  0  0
    0.1753   -2.7973  -20.9864 C   0  0  0  0  0  0  0  0  0  0  0  0
   -0.2790   -1.3961  -21.3446 C   0  0  0  0  0  0  0  0  0  0  0  0
    0.9608   -0.5835  -21.6501 C   0  0  0  0  0  0  0  0  0  0  0  0
    0.5757    0.8081  -22.1059 C   0  0  0  0  0  0  0  0  0  0  0  0
   -0.2313    0.6480  -23.3180 N   0  0  0  0  0  0  0  0  0  0  0  0
   -0.5689   -0.6886  -23.7128 C   0  0  0  0  0  0  0  0  0  0  0  0
   -1.1418   -1.4989  -22.5747 C   0  0  0  0  0  0  0  0  0  0  0  0
   -0.6281    1.8052  -24.0240 C   0  0  0  0  0  0  0  0  0  0  0  0
   -1.4744    1.6896  -25.2378 C   0  0  0  0  0  0  0  0  0  0  0  0
   -0.2823    2.9443  -23.6516 O   0  0  0  0  0  0  0  0  0  0  0  0
    0.7103   -5.0856  -19.2544 C   0  0  0  0  0  0  0  0  0  0  0  0
    1.0807   -5.9139  -18.2168 C   0  0  0  0  0  0  0  0  0  0  0  0
    2.1417   -6.7658  -18.3559 F   0  0  0  0  0  0  0  0  0  0  0  0
    0.3914   -5.9086  -17.0047 C   0  0  0  0  0  0  0  0  0  0  0  0
  1  2  2  0
  2  3  1  0
  3  4  1  0
  4  5  1  0
  5  6  1  0
  6  7  1  0
  7  8  1  0
  8  9  1  0
  9 10  1  0
 10 11  1  0
 11 12  1  0
  4 13  2  0
 13 14  1  0
 14 15  2  0
 15 16  1  0
 16 17  1  0
 17 18  1  0
 18 19  1  0
 19 20  1  0
 20 21  1  0
 21 22  1  0
 22 23  1  0
 23 24  1  0
 22 25  1  0
 25 26  1  0
 25 27  2  0
 16 28  2  0
 28 29  1  0
 29 30  1  0
 29 31  2  0
 31  2  1  0
 12  7  1  0
 31 14  1  0
 24 19  1  0
M  END
$$$$
