
     RDKit          3D

 31 34  0  0  0  0  0  0  0  0999 V2000
    1.8227   -7.7803  -16.3229 O   0  0  0  0  0  0  0  0  0  0  0  0
    1.0544   -6.8839  -16.7552 C   0  0  0  0  0  0  0  0  0  0  0  0
    1.0992   -6.4398  -18.0201 N   0  0  0  0  0  0  0  0  0  0  0  0
    0.2593   -5.4667  -18.4752 C   0  0  0  0  0  0  0  0  0  0  0  0
    0.3880   -5.0421  -19.8920 C   0  0  0  0  0  0  0  0  0  0  0  0
    0.4154   -3.2621  -20.1062 S   0  0  0  0  0  0  0  0  0  0  0  0
   -1.2393   -2.5698  -20.3357 C   0  0  0  0  0  0  0  0  0  0  0  0
   -1.1036   -1.0451  -20.3043 C   0  0  0  0  0  0  0  0  0  0  0  0
   -0.9474   -0.4961  -21.7059 C   0  0  0  0  0  0  0  0  0  0  0  0
   -0.1637   -1.3140  -22.5119 O   0  0  0  0  0  0  0  0  0  0  0  0
   -0.6908   -2.5714  -22.7050 C   0  0  0  0  0  0  0  0  0  0  0  0
   -1.7951   -2.9073  -21.7168 C   0  0  0  0  0  0  0  0  0  0  0  0
   -0.6326   -4.9412  -17.6381 N   0  0  0  0  0  0  0  0  0  0  0  0
   -0.7067   -5.3616  -16.3623 C   0  0  0  0  0  0  0  0  0  0  0  0
   -1.6230   -4.8348  -15.4681 C   0  0  0  0  0  0  0  0  0  0  0  0
   -1.7190   -5.2497  -14.1521 C   0  0  0  0  0  0  0  0  0  0  0  0
   -2.6215   -4.7347  -13.2624 O   0  0  0  0  0  0  0  0  0  0  0  0
   -2.8887   -3.3826  -13.0599 C   0  0  0  0  0  0  0  0  0  0  0  0
   -3.1438   -3.0653  -11.5996 C   0  0  0  0  0  0  0  0  0  0  0  0
   -2.1547   -3.8690  -10.7834 C   0  0  0  0  0  0  0  0  0  0  0  0
   -2.2919   -3.5314   -9.3137 C   0  0  0  0  0  0  0  0  0  0  0  0
   -2.0080   -2.1004   -9.1801 N   0  0  0  0  0  0  0  0  0  0  0  0
   -1.8043   -1.3539  -10.3875 C   0  0  0  0  0  0  0  0  0  0  0  0
   -2.8945   -1.5930  -11.4044 C   0  0  0  0  0  0  0  0  0  0  0  0
   -1.9507   -1.5404   -7.8848 C   0  0  0  0  0  0  0  0  0  0  0  0
   -2.1142   -0.0778   -7.6924 C   0  0  0  0  0  0  0  0  0  0  0  0
   -1.7629   -2.2512   -6.8771 O   0  0  0  0  0  0  0  0  0  0  0  0
   -0.8677   -6.2382  -13.6852 C   0  0  0  0  0  0  0  0  0  0  0  0
    0.0533   -6.7781  -14.5571 C   0  0  0  0  0  0  0  0  0  0  0  0
    0.9127   -7.7562  -14.1381 F   0  0  0  0  0  0  0  0  0  0  0  0
    0.1361   -6.3477  -15.8808 C   0  0  0  0  0  0  0  0  0  0  0  0
  1  2  2  0
  2  3  1  0
  3  4  1  0
  4  5  1  0
  5  6  1  0
  6  7  1  0
  7  8  1  0
  8  9  1  0
  9 10  1  0
 10 11  1  0
 11 12  1  0
  4 13  2  0
 13 14  1  0
 14 15  2  0
 15 16  1  0
 16 17  1  0
 17 18  1  0
 18 19  1  0
 19 20  1  0
 20 21  1  0
 21 22  1  0
 22 23  1  0
 23 24  1  0
 22 25  1  0
 25 26  1  0
 25 27  2  0
 16 28  2  0
 28 29  1  0
 29 30  1  0
 29 31  2  0
 31  2  1  0
 12  7  1  0
 31 14  1  0
 24 19  1  0
M  END
$$$$
