
     RDKit          3D

 31 34  0  0  0  0  0  0  0  0999 V2000
    1.6266   -7.6793  -16.1848 O   0  0  0  0  0  0  0  0  0  0  0  0
    0.7655   -6.7797  -16.0112 C   0  0  0  0  0  0  0  0  0  0  0  0
    0.1564   -6.5778  -14.8333 N   0  0  0  0  0  0  0  0  0  0  0  0
   -0.7759   -5.5980  -14.6597 C   0  0  0  0  0  0  0  0  0  0  0  0
   -1.3945   -5.4549  -13.3177 C   0  0  0  0  0  0  0  0  0  0  0  0
   -1.8854   -7.0163  -12.5856 S   0  0  0  0  0  0  0  0  0  0  0  0
   -3.6467   -7.0633  -12.1787 C   0  0  0  0  0  0  0  0  0  0  0  0
   -3.9512   -8.4612  -11.6337 C   0  0  0  0  0  0  0  0  0  0  0  0
   -3.8537   -8.4761  -10.1235 C   0  0  0  0  0  0  0  0  0  0  0  0
   -2.8129   -7.6846   -9.6512 O   0  0  0  0  0  0  0  0  0  0  0  0
   -2.9465   -6.3497   -9.9618 C   0  0  0  0  0  0  0  0  0  0  0  0
   -3.9804   -6.0959  -11.0460 C   0  0  0  0  0  0  0  0  0  0  0  0
   -1.0912   -4.8177  -15.6913 N   0  0  0  0  0  0  0  0  0  0  0  0
   -0.5010   -4.9906  -16.8878 C   0  0  0  0  0  0  0  0  0  0  0  0
   -0.8076   -4.1957  -17.9791 C   0  0  0  0  0  0  0  0  0  0  0  0
   -0.2152   -4.3533  -19.2190 C   0  0  0  0  0  0  0  0  0  0  0  0
   -0.5122   -3.5723  -20.3020 O   0  0  0  0  0  0  0  0  0  0  0  0
    0.4118   -2.9741  -21.1559 C   0  0  0  0  0  0  0  0  0  0  0  0
   -0.2620   -2.1639  -22.2458 C   0  0  0  0  0  0  0  0  0  0  0  0
   -1.2103   -1.1976  -21.5694 C   0  0  0  0  0  0  0  0  0  0  0  0
   -1.8535   -0.2898  -22.5965 C   0  0  0  0  0  0  0  0  0  0  0  0
   -0.7681    0.4459  -23.2497 N   0  0  0  0  0  0  0  0  0  0  0  0
    0.5753    0.0867  -22.8991 C   0  0  0  0  0  0  0  0  0  0  0  0
    0.8128   -1.4025  -22.9760 C   0  0  0  0  0  0  0  0  0  0  0  0
   -1.0996    1.4574  -24.1779 C   0  0  0  0  0  0  0  0  0  0  0  0
   -0.0393    2.3180  -24.7596 C   0  0  0  0  0  0  0  0  0  0  0  0
   -2.2796    1.6541  -24.5312 O   0  0  0  0  0  0  0  0  0  0  0  0
    0.7326   -5.3477  -19.4001 C   0  0  0  0  0  0  0  0  0  0  0  0
    1.0546   -6.1520  -18.3280 C   0  0  0  0  0  0  0  0  0  0  0  0
    1.9850   -7.1454  -18.4626 F   0  0  0  0  0  0  0  0  0  0  0  0
    0.4472   -5.9788  -17.0849 C   0  0  0  0  0  0  0  0  0  0  0  0
  1  2  2  0
  2  3  1  0
  3  4  1  0
  4  5  1  0
  5  6  1  0
  6  7  1  0
  7  8  1  0
  8  9  1  0
  9 10  1  0
 10 11  1  0
 11 12  1  0
  4 13  2  0
 13 14  1  0
 14 15  2  0
 15 16  1  0
 16 17  1  0
 17 18  1  0
 18 19  1  0
 19 20  1  0
 20 21  1  0
 21 22  1  0
 22 23  1  0
 23 24  1  0
 22 25  1  0
 25 26  1  0
 25 27  2  0
 16 28  2  0
 28 29  1  0
 29 30  1  0
 29 31  2  0
 31  2  1  0
 12  7  1  0
 31 14  1  0
 24 19  1  0
M  END
$$$$
