
     RDKit          3D

 31 34  0  0  0  0  0  0  0  0999 V2000
    1.5300   -7.6984  -15.4016 O   0  0  0  0  0  0  0  0  0  0  0  0
    1.0718   -6.7879  -16.1377 C   0  0  0  0  0  0  0  0  0  0  0  0
    1.5088   -6.5790  -17.3885 N   0  0  0  0  0  0  0  0  0  0  0  0
    1.0024   -5.5872  -18.1754 C   0  0  0  0  0  0  0  0  0  0  0  0
    1.5531   -5.4355  -19.5458 C   0  0  0  0  0  0  0  0  0  0  0  0
    0.3888   -4.7269  -20.7108 S   0  0  0  0  0  0  0  0  0  0  0  0
   -1.2992   -5.3183  -20.4445 C   0  0  0  0  0  0  0  0  0  0  0  0
   -2.2353   -4.3900  -21.2230 C   0  0  0  0  0  0  0  0  0  0  0  0
   -2.5181   -4.9524  -22.5992 C   0  0  0  0  0  0  0  0  0  0  0  0
   -1.4015   -5.5570  -23.1652 O   0  0  0  0  0  0  0  0  0  0  0  0
   -0.9369   -6.6403  -22.4532 C   0  0  0  0  0  0  0  0  0  0  0  0
   -1.5014   -6.7074  -21.0441 C   0  0  0  0  0  0  0  0  0  0  0  0
    0.0446   -4.8020  -17.6871 N   0  0  0  0  0  0  0  0  0  0  0  0
   -0.4186   -4.9817  -16.4369 C   0  0  0  0  0  0  0  0  0  0  0  0
   -1.4135   -4.1819  -15.9009 C   0  0  0  0  0  0  0  0  0  0  0  0
   -1.9065   -4.3461  -14.6190 C   0  0  0  0  0  0  0  0  0  0  0  0
   -2.8893   -3.5606  -14.0821 O   0  0  0  0  0  0  0  0  0  0  0  0
   -2.8153   -2.8711  -12.8739 C   0  0  0  0  0  0  0  0  0  0  0  0
   -2.3632   -1.4367  -13.0639 C   0  0  0  0  0  0  0  0  0  0  0  0
   -3.5456   -0.6574  -13.5977 C   0  0  0  0  0  0  0  0  0  0  0  0
   -3.1914    0.8092  -13.7262 C   0  0  0  0  0  0  0  0  0  0  0  0
   -2.8446    1.2798  -12.3829 N   0  0  0  0  0  0  0  0  0  0  0  0
   -2.7917    0.3017  -11.3356 C   0  0  0  0  0  0  0  0  0  0  0  0
   -1.9640   -0.9035  -11.7132 C   0  0  0  0  0  0  0  0  0  0  0  0
   -2.5848    2.6552  -12.1944 C   0  0  0  0  0  0  0  0  0  0  0  0
   -2.8973    3.6314  -13.2679 C   0  0  0  0  0  0  0  0  0  0  0  0
   -2.0907    3.0837  -11.1322 O   0  0  0  0  0  0  0  0  0  0  0  0
   -1.3950   -5.3525  -13.8158 C   0  0  0  0  0  0  0  0  0  0  0  0
   -0.4036   -6.1619  -14.3275 C   0  0  0  0  0  0  0  0  0  0  0  0
    0.1294   -7.1676  -13.5690 F   0  0  0  0  0  0  0  0  0  0  0  0
    0.0817   -5.9820  -15.6223 C   0  0  0  0  0  0  0  0  0  0  0  0
  1  2  2  0
  2  3  1  0
  3  4  1  0
  4  5  1  0
  5  6  1  0
  6  7  1  0
  7  8  1  0
  8  9  1  0
  9 10  1  0
 10 11  1  0
 11 12  1  0
  4 13  2  0
 13 14  1  0
 14 15  2  0
 15 16  1  0
 16 17  1  0
 17 18  1  0
 18 19  1  0
 19 20  1  0
 20 21  1  0
 21 22  1  0
 22 23  1  0
 23 24  1  0
 22 25  1  0
 25 26  1  0
 25 27  2  0
 16 28  2  0
 28 29  1  0
 29 30  1  0
 29 31  2  0
 31  2  1  0
 12  7  1  0
 31 14  1  0
 24 19  1  0
M  END
$$$$
