
     RDKit          3D

 31 34  0  0  0  0  0  0  0  0999 V2000
    1.5820   -7.6711  -16.0370 O   0  0  0  0  0  0  0  0  0  0  0  0
    0.6747   -6.8283  -15.8196 C   0  0  0  0  0  0  0  0  0  0  0  0
    0.0393   -6.7356  -14.6420 N   0  0  0  0  0  0  0  0  0  0  0  0
   -0.9431   -5.8163  -14.4205 C   0  0  0  0  0  0  0  0  0  0  0  0
   -1.5875   -5.7937  -13.0832 C   0  0  0  0  0  0  0  0  0  0  0  0
   -1.9571   -7.4257  -12.4391 S   0  0  0  0  0  0  0  0  0  0  0  0
   -3.7071   -7.6251  -12.0296 C   0  0  0  0  0  0  0  0  0  0  0  0
   -3.9595   -9.1213  -11.8248 C   0  0  0  0  0  0  0  0  0  0  0  0
   -3.8290   -9.4872  -10.3622 C   0  0  0  0  0  0  0  0  0  0  0  0
   -2.8015   -8.7948   -9.7316 O   0  0  0  0  0  0  0  0  0  0  0  0
   -2.9800   -7.4295   -9.7172 C   0  0  0  0  0  0  0  0  0  0  0  0
   -4.0440   -6.9624  -10.6964 C   0  0  0  0  0  0  0  0  0  0  0  0
   -1.2821   -4.9851  -15.4036 N   0  0  0  0  0  0  0  0  0  0  0  0
   -0.6667   -5.0486  -16.5983 C   0  0  0  0  0  0  0  0  0  0  0  0
   -0.9967   -4.1983  -17.6399 C   0  0  0  0  0  0  0  0  0  0  0  0
   -0.3794   -4.2435  -18.8769 C   0  0  0  0  0  0  0  0  0  0  0  0
   -0.6992   -3.4071  -19.9109 O   0  0  0  0  0  0  0  0  0  0  0  0
    0.0853   -3.1612  -21.0355 C   0  0  0  0  0  0  0  0  0  0  0  0
   -0.0223   -1.7224  -21.5009 C   0  0  0  0  0  0  0  0  0  0  0  0
    0.9661   -1.5385  -22.6322 C   0  0  0  0  0  0  0  0  0  0  0  0
    0.8483   -0.1435  -23.2089 C   0  0  0  0  0  0  0  0  0  0  0  0
   -0.5211   -0.0075  -23.7111 N   0  0  0  0  0  0  0  0  0  0  0  0
   -1.4270   -1.0894  -23.4550 C   0  0  0  0  0  0  0  0  0  0  0  0
   -1.4256   -1.5119  -22.0054 C   0  0  0  0  0  0  0  0  0  0  0  0
   -0.8707    1.1675  -24.4125 C   0  0  0  0  0  0  0  0  0  0  0  0
    0.1643    2.1780  -24.7453 C   0  0  0  0  0  0  0  0  0  0  0  0
   -2.0461    1.3869  -24.7680 O   0  0  0  0  0  0  0  0  0  0  0  0
    0.6194   -5.1760  -19.1064 C   0  0  0  0  0  0  0  0  0  0  0  0
    0.9655   -6.0336  -18.0843 C   0  0  0  0  0  0  0  0  0  0  0  0
    1.9462   -6.9692  -18.2678 F   0  0  0  0  0  0  0  0  0  0  0  0
    0.3324   -5.9738  -16.8434 C   0  0  0  0  0  0  0  0  0  0  0  0
  1  2  2  0
  2  3  1  0
  3  4  1  0
  4  5  1  0
  5  6  1  0
  6  7  1  0
  7  8  1  0
  8  9  1  0
  9 10  1  0
 10 11  1  0
 11 12  1  0
  4 13  2  0
 13 14  1  0
 14 15  2  0
 15 16  1  0
 16 17  1  0
 17 18  1  0
 18 19  1  0
 19 20  1  0
 20 21  1  0
 21 22  1  0
 22 23  1  0
 23 24  1  0
 22 25  1  0
 25 26  1  0
 25 27  2  0
 16 28  2  0
 28 29  1  0
 29 30  1  0
 29 31  2  0
 31  2  1  0
 12  7  1  0
 31 14  1  0
 24 19  1  0
M  END
$$$$
