
     RDKit          3D

 31 34  0  0  0  0  0  0  0  0999 V2000
    1.5254   -7.6549  -16.1301 O   0  0  0  0  0  0  0  0  0  0  0  0
    0.6565   -6.7828  -15.8745 C   0  0  0  0  0  0  0  0  0  0  0  0
    0.0448   -6.6971  -14.6839 N   0  0  0  0  0  0  0  0  0  0  0  0
   -0.8959   -5.7456  -14.4209 C   0  0  0  0  0  0  0  0  0  0  0  0
   -1.5168   -5.7339  -13.0723 C   0  0  0  0  0  0  0  0  0  0  0  0
   -2.8161   -6.9531  -12.8718 S   0  0  0  0  0  0  0  0  0  0  0  0
   -2.3517   -8.2734  -11.7268 C   0  0  0  0  0  0  0  0  0  0  0  0
   -2.3906   -7.6856  -10.3136 C   0  0  0  0  0  0  0  0  0  0  0  0
   -3.7371   -7.9367   -9.6700 C   0  0  0  0  0  0  0  0  0  0  0  0
   -4.7873   -7.8185  -10.5732 O   0  0  0  0  0  0  0  0  0  0  0  0
   -4.7373   -8.7299  -11.6042 C   0  0  0  0  0  0  0  0  0  0  0  0
   -3.3803   -9.4013  -11.7341 C   0  0  0  0  0  0  0  0  0  0  0  0
   -1.2172   -4.8750  -15.3754 N   0  0  0  0  0  0  0  0  0  0  0  0
   -0.6246   -4.9304  -16.5819 C   0  0  0  0  0  0  0  0  0  0  0  0
   -0.9371   -4.0395  -17.5946 C   0  0  0  0  0  0  0  0  0  0  0  0
   -0.3425   -4.0755  -18.8429 C   0  0  0  0  0  0  0  0  0  0  0  0
   -0.6453   -3.1991  -19.8486 O   0  0  0  0  0  0  0  0  0  0  0  0
   -0.3956   -3.3943  -21.2052 C   0  0  0  0  0  0  0  0  0  0  0  0
   -0.9989   -2.2962  -22.0586 C   0  0  0  0  0  0  0  0  0  0  0  0
   -0.8655   -1.0005  -21.2880 C   0  0  0  0  0  0  0  0  0  0  0  0
   -1.3675    0.1591  -22.1223 C   0  0  0  0  0  0  0  0  0  0  0  0
   -0.5365    0.2038  -23.3279 N   0  0  0  0  0  0  0  0  0  0  0  0
    0.4152   -0.8531  -23.5113 C   0  0  0  0  0  0  0  0  0  0  0  0
   -0.1999   -2.2205  -23.3329 C   0  0  0  0  0  0  0  0  0  0  0  0
   -0.7152    1.2731  -24.2332 C   0  0  0  0  0  0  0  0  0  0  0  0
   -1.3539    2.5359  -23.7853 C   0  0  0  0  0  0  0  0  0  0  0  0
   -0.3455    1.1874  -25.4214 O   0  0  0  0  0  0  0  0  0  0  0  0
    0.6139   -5.0405  -19.1147 C   0  0  0  0  0  0  0  0  0  0  0  0
    0.9419   -5.9388  -18.1220 C   0  0  0  0  0  0  0  0  0  0  0  0
    1.8809   -6.9074  -18.3475 F   0  0  0  0  0  0  0  0  0  0  0  0
    0.3322   -5.8877  -16.8691 C   0  0  0  0  0  0  0  0  0  0  0  0
  1  2  2  0
  2  3  1  0
  3  4  1  0
  4  5  1  0
  5  6  1  0
  6  7  1  0
  7  8  1  0
  8  9  1  0
  9 10  1  0
 10 11  1  0
 11 12  1  0
  4 13  2  0
 13 14  1  0
 14 15  2  0
 15 16  1  0
 16 17  1  0
 17 18  1  0
 18 19  1  0
 19 20  1  0
 20 21  1  0
 21 22  1  0
 22 23  1  0
 23 24  1  0
 22 25  1  0
 25 26  1  0
 25 27  2  0
 16 28  2  0
 28 29  1  0
 29 30  1  0
 29 31  2  0
 31  2  1  0
 12  7  1  0
 31 14  1  0
 24 19  1  0
M  END
$$$$
