
     RDKit          3D

 31 34  0  0  0  0  0  0  0  0999 V2000
    1.4163   -7.8071  -16.2782 O   0  0  0  0  0  0  0  0  0  0  0  0
    0.8343   -6.7713  -16.6897 C   0  0  0  0  0  0  0  0  0  0  0  0
    1.1086   -6.2094  -17.8763 N   0  0  0  0  0  0  0  0  0  0  0  0
    0.4692   -5.0857  -18.3096 C   0  0  0  0  0  0  0  0  0  0  0  0
    0.8444   -4.5391  -19.6381 C   0  0  0  0  0  0  0  0  0  0  0  0
    0.2140   -2.8873  -19.9364 S   0  0  0  0  0  0  0  0  0  0  0  0
   -1.4299   -2.9025  -20.6896 C   0  0  0  0  0  0  0  0  0  0  0  0
   -2.0028   -1.4884  -20.5616 C   0  0  0  0  0  0  0  0  0  0  0  0
   -1.7092   -0.6809  -21.8074 C   0  0  0  0  0  0  0  0  0  0  0  0
   -0.4477   -0.9474  -22.3275 O   0  0  0  0  0  0  0  0  0  0  0  0
   -0.2788   -2.2531  -22.7310 C   0  0  0  0  0  0  0  0  0  0  0  0
   -1.3511   -3.1828  -22.1880 C   0  0  0  0  0  0  0  0  0  0  0  0
   -0.4560   -4.5291  -17.5308 N   0  0  0  0  0  0  0  0  0  0  0  0
   -0.7576   -5.0647  -16.3341 C   0  0  0  0  0  0  0  0  0  0  0  0
   -1.7145   -4.5093  -15.5017 C   0  0  0  0  0  0  0  0  0  0  0  0
   -2.0426   -5.0405  -14.2674 C   0  0  0  0  0  0  0  0  0  0  0  0
   -2.9866   -4.4982  -13.4393 O   0  0  0  0  0  0  0  0  0  0  0  0
   -3.1496   -4.7872  -12.0863 C   0  0  0  0  0  0  0  0  0  0  0  0
   -2.2366   -3.9507  -11.2117 C   0  0  0  0  0  0  0  0  0  0  0  0
   -2.7605   -2.5311  -11.2397 C   0  0  0  0  0  0  0  0  0  0  0  0
   -1.9469   -1.6542  -10.3114 C   0  0  0  0  0  0  0  0  0  0  0  0
   -2.0896   -2.2159   -8.9659 N   0  0  0  0  0  0  0  0  0  0  0  0
   -2.8050   -3.4524   -8.8408 C   0  0  0  0  0  0  0  0  0  0  0  0
   -2.3187   -4.5010   -9.8123 C   0  0  0  0  0  0  0  0  0  0  0  0
   -1.5218   -1.5171   -7.8777 C   0  0  0  0  0  0  0  0  0  0  0  0
   -1.6418   -2.0521   -6.4984 C   0  0  0  0  0  0  0  0  0  0  0  0
   -0.9103   -0.4426   -8.0431 O   0  0  0  0  0  0  0  0  0  0  0  0
   -1.3954   -6.1822  -13.8230 C   0  0  0  0  0  0  0  0  0  0  0  0
   -0.4387   -6.7535  -14.6343 C   0  0  0  0  0  0  0  0  0  0  0  0
    0.2243   -7.8811  -14.2348 F   0  0  0  0  0  0  0  0  0  0  0  0
   -0.1206   -6.2043  -15.8759 C   0  0  0  0  0  0  0  0  0  0  0  0
  1  2  2  0
  2  3  1  0
  3  4  1  0
  4  5  1  0
  5  6  1  0
  6  7  1  0
  7  8  1  0
  8  9  1  0
  9 10  1  0
 10 11  1  0
 11 12  1  0
  4 13  2  0
 13 14  1  0
 14 15  2  0
 15 16  1  0
 16 17  1  0
 17 18  1  0
 18 19  1  0
 19 20  1  0
 20 21  1  0
 21 22  1  0
 22 23  1  0
 23 24  1  0
 22 25  1  0
 25 26  1  0
 25 27  2  0
 16 28  2  0
 28 29  1  0
 29 30  1  0
 29 31  2  0
 31  2  1  0
 12  7  1  0
 31 14  1  0
 24 19  1  0
M  END
$$$$
