
     RDKit          3D

 31 34  0  0  0  0  0  0  0  0999 V2000
    1.6780   -7.5897  -16.0252 O   0  0  0  0  0  0  0  0  0  0  0  0
    1.0892   -6.5853  -16.4999 C   0  0  0  0  0  0  0  0  0  0  0  0
    1.4143   -6.0483  -17.6853 N   0  0  0  0  0  0  0  0  0  0  0  0
    0.7668   -4.9585  -18.1877 C   0  0  0  0  0  0  0  0  0  0  0  0
    1.2013   -4.4375  -19.5083 C   0  0  0  0  0  0  0  0  0  0  0  0
    0.3481   -2.9401  -20.0029 S   0  0  0  0  0  0  0  0  0  0  0  0
   -0.6547   -3.1769  -21.4890 C   0  0  0  0  0  0  0  0  0  0  0  0
   -1.2391   -1.8131  -21.8665 C   0  0  0  0  0  0  0  0  0  0  0  0
   -0.3521   -1.1150  -22.8746 C   0  0  0  0  0  0  0  0  0  0  0  0
    0.9999   -1.3215  -22.6247 O   0  0  0  0  0  0  0  0  0  0  0  0
    1.3830   -2.6418  -22.7038 C   0  0  0  0  0  0  0  0  0  0  0  0
    0.2052   -3.6015  -22.6766 C   0  0  0  0  0  0  0  0  0  0  0  0
   -0.2186   -4.4106  -17.4797 N   0  0  0  0  0  0  0  0  0  0  0  0
   -0.5724   -4.9219  -16.2867 C   0  0  0  0  0  0  0  0  0  0  0  0
   -1.5925   -4.3747  -15.5272 C   0  0  0  0  0  0  0  0  0  0  0  0
   -1.9750   -4.8815  -14.2983 C   0  0  0  0  0  0  0  0  0  0  0  0
   -2.9816   -4.3471  -13.5419 O   0  0  0  0  0  0  0  0  0  0  0  0
   -3.2312   -4.6254  -12.1999 C   0  0  0  0  0  0  0  0  0  0  0  0
   -2.3595   -3.7984  -11.2755 C   0  0  0  0  0  0  0  0  0  0  0  0
   -2.9229   -2.3938  -11.2601 C   0  0  0  0  0  0  0  0  0  0  0  0
   -2.1528   -1.5313  -10.2826 C   0  0  0  0  0  0  0  0  0  0  0  0
   -2.3055   -2.1483   -8.9627 N   0  0  0  0  0  0  0  0  0  0  0  0
   -2.9879   -3.4080   -8.8995 C   0  0  0  0  0  0  0  0  0  0  0  0
   -2.4531   -4.4045   -9.9000 C   0  0  0  0  0  0  0  0  0  0  0  0
   -1.7791   -1.4768   -7.8372 C   0  0  0  0  0  0  0  0  0  0  0  0
   -1.9358   -2.0537   -6.4787 C   0  0  0  0  0  0  0  0  0  0  0  0
   -1.1743   -0.3918   -7.9518 O   0  0  0  0  0  0  0  0  0  0  0  0
   -1.3198   -5.9887  -13.7838 C   0  0  0  0  0  0  0  0  0  0  0  0
   -0.3006   -6.5511  -14.5219 C   0  0  0  0  0  0  0  0  0  0  0  0
    0.3725   -7.6450  -14.0517 F   0  0  0  0  0  0  0  0  0  0  0  0
    0.0718   -6.0270  -15.7591 C   0  0  0  0  0  0  0  0  0  0  0  0
  1  2  2  0
  2  3  1  0
  3  4  1  0
  4  5  1  0
  5  6  1  0
  6  7  1  0
  7  8  1  0
  8  9  1  0
  9 10  1  0
 10 11  1  0
 11 12  1  0
  4 13  2  0
 13 14  1  0
 14 15  2  0
 15 16  1  0
 16 17  1  0
 17 18  1  0
 18 19  1  0
 19 20  1  0
 20 21  1  0
 21 22  1  0
 22 23  1  0
 23 24  1  0
 22 25  1  0
 25 26  1  0
 25 27  2  0
 16 28  2  0
 28 29  1  0
 29 30  1  0
 29 31  2  0
 31  2  1  0
 12  7  1  0
 31 14  1  0
 24 19  1  0
M  END
$$$$
