
     RDKit          3D

 31 34  0  0  0  0  0  0  0  0999 V2000
    1.6247   -7.7231  -16.4517 O   0  0  0  0  0  0  0  0  0  0  0  0
    0.7639   -6.8958  -16.8459 C   0  0  0  0  0  0  0  0  0  0  0  0
    0.6484   -6.5273  -18.1304 N   0  0  0  0  0  0  0  0  0  0  0  0
   -0.2902   -5.6285  -18.5434 C   0  0  0  0  0  0  0  0  0  0  0  0
   -0.3374   -5.2842  -19.9869 C   0  0  0  0  0  0  0  0  0  0  0  0
    0.9318   -4.1207  -20.4871 S   0  0  0  0  0  0  0  0  0  0  0  0
    0.5128   -2.4155  -20.0550 C   0  0  0  0  0  0  0  0  0  0  0  0
    1.6748   -1.5305  -20.5138 C   0  0  0  0  0  0  0  0  0  0  0  0
    1.4117   -0.9838  -21.9003 C   0  0  0  0  0  0  0  0  0  0  0  0
    0.7884   -1.9116  -22.7270 O   0  0  0  0  0  0  0  0  0  0  0  0
   -0.4551   -2.3026  -22.2832 C   0  0  0  0  0  0  0  0  0  0  0  0
   -0.7084   -1.9305  -20.8319 C   0  0  0  0  0  0  0  0  0  0  0  0
   -1.1175   -5.1006  -17.6439 N   0  0  0  0  0  0  0  0  0  0  0  0
   -1.0314   -5.4464  -16.3466 C   0  0  0  0  0  0  0  0  0  0  0  0
   -1.8770   -4.9149  -15.3878 C   0  0  0  0  0  0  0  0  0  0  0  0
   -1.8087   -5.2540  -14.0485 C   0  0  0  0  0  0  0  0  0  0  0  0
   -2.6402   -4.7339  -13.0951 O   0  0  0  0  0  0  0  0  0  0  0  0
   -2.4960   -4.8802  -11.7172 C   0  0  0  0  0  0  0  0  0  0  0  0
   -2.2151   -3.5580  -11.0308 C   0  0  0  0  0  0  0  0  0  0  0  0
   -3.5018   -3.1085  -10.3728 C   0  0  0  0  0  0  0  0  0  0  0  0
   -3.2713   -1.8340   -9.5884 C   0  0  0  0  0  0  0  0  0  0  0  0
   -2.2660   -2.1411   -8.5681 N   0  0  0  0  0  0  0  0  0  0  0  0
   -1.6648   -3.4425   -8.6067 C   0  0  0  0  0  0  0  0  0  0  0  0
   -1.1615   -3.8049   -9.9834 C   0  0  0  0  0  0  0  0  0  0  0  0
   -1.9475   -1.1508   -7.6128 C   0  0  0  0  0  0  0  0  0  0  0  0
   -2.8032    0.0532   -7.4671 C   0  0  0  0  0  0  0  0  0  0  0  0
   -0.9491   -1.2587   -6.8729 O   0  0  0  0  0  0  0  0  0  0  0  0
   -0.8565   -6.1667  -13.6242 C   0  0  0  0  0  0  0  0  0  0  0  0
   -0.0031   -6.7096  -14.5607 C   0  0  0  0  0  0  0  0  0  0  0  0
    0.9514   -7.6144  -14.1853 F   0  0  0  0  0  0  0  0  0  0  0  0
   -0.0863   -6.3563  -15.9070 C   0  0  0  0  0  0  0  0  0  0  0  0
  1  2  2  0
  2  3  1  0
  3  4  1  0
  4  5  1  0
  5  6  1  0
  6  7  1  0
  7  8  1  0
  8  9  1  0
  9 10  1  0
 10 11  1  0
 11 12  1  0
  4 13  2  0
 13 14  1  0
 14 15  2  0
 15 16  1  0
 16 17  1  0
 17 18  1  0
 18 19  1  0
 19 20  1  0
 20 21  1  0
 21 22  1  0
 22 23  1  0
 23 24  1  0
 22 25  1  0
 25 26  1  0
 25 27  2  0
 16 28  2  0
 28 29  1  0
 29 30  1  0
 29 31  2  0
 31  2  1  0
 12  7  1  0
 31 14  1  0
 24 19  1  0
M  END
$$$$
