
     RDKit          3D

 31 34  0  0  0  0  0  0  0  0999 V2000
    1.3013   -7.7841  -16.1422 O   0  0  0  0  0  0  0  0  0  0  0  0
    0.6520   -6.9622  -16.8377 C   0  0  0  0  0  0  0  0  0  0  0  0
    0.7454   -6.9120  -18.1749 N   0  0  0  0  0  0  0  0  0  0  0  0
    0.0350   -6.0149  -18.9165 C   0  0  0  0  0  0  0  0  0  0  0  0
    0.2081   -6.0377  -20.3908 C   0  0  0  0  0  0  0  0  0  0  0  0
    1.1316   -4.6376  -21.0248 S   0  0  0  0  0  0  0  0  0  0  0  0
    0.5340   -3.0627  -20.3669 C   0  0  0  0  0  0  0  0  0  0  0  0
    1.4569   -1.9652  -20.9035 C   0  0  0  0  0  0  0  0  0  0  0  0
    0.8905   -1.3681  -22.1735 C   0  0  0  0  0  0  0  0  0  0  0  0
    0.2891   -2.3223  -22.9863 O   0  0  0  0  0  0  0  0  0  0  0  0
   -0.7908   -2.9465  -22.4029 C   0  0  0  0  0  0  0  0  0  0  0  0
   -0.8572   -2.7308  -20.9002 C   0  0  0  0  0  0  0  0  0  0  0  0
   -0.7764   -5.1626  -18.2940 N   0  0  0  0  0  0  0  0  0  0  0  0
   -0.8958   -5.1835  -16.9541 C   0  0  0  0  0  0  0  0  0  0  0  0
   -1.7309   -4.3103  -16.2781 C   0  0  0  0  0  0  0  0  0  0  0  0
   -1.8711   -4.3116  -14.9020 C   0  0  0  0  0  0  0  0  0  0  0  0
   -2.6940   -3.4527  -14.2265 O   0  0  0  0  0  0  0  0  0  0  0  0
   -2.4125   -2.8406  -13.0072 C   0  0  0  0  0  0  0  0  0  0  0  0
   -3.3175   -1.6533  -12.7440 C   0  0  0  0  0  0  0  0  0  0  0  0
   -3.1049   -1.2335  -11.3056 C   0  0  0  0  0  0  0  0  0  0  0  0
   -3.9133    0.0093  -10.9978 C   0  0  0  0  0  0  0  0  0  0  0  0
   -3.4374    1.0583  -11.9029 N   0  0  0  0  0  0  0  0  0  0  0  0
   -2.4751    0.6832  -12.8978 C   0  0  0  0  0  0  0  0  0  0  0  0
   -2.8934   -0.5446  -13.6708 C   0  0  0  0  0  0  0  0  0  0  0  0
   -3.9458    2.3669  -11.7481 C   0  0  0  0  0  0  0  0  0  0  0  0
   -4.6670    2.7493  -10.5085 C   0  0  0  0  0  0  0  0  0  0  0  0
   -3.8047    3.2286  -12.6389 O   0  0  0  0  0  0  0  0  0  0  0  0
   -1.1512   -5.2213  -14.1444 C   0  0  0  0  0  0  0  0  0  0  0  0
   -0.3130   -6.1010  -14.7952 C   0  0  0  0  0  0  0  0  0  0  0  0
    0.4160   -7.0157  -14.0861 F   0  0  0  0  0  0  0  0  0  0  0  0
   -0.1840   -6.0856  -16.1834 C   0  0  0  0  0  0  0  0  0  0  0  0
  1  2  2  0
  2  3  1  0
  3  4  1  0
  4  5  1  0
  5  6  1  0
  6  7  1  0
  7  8  1  0
  8  9  1  0
  9 10  1  0
 10 11  1  0
 11 12  1  0
  4 13  2  0
 13 14  1  0
 14 15  2  0
 15 16  1  0
 16 17  1  0
 17 18  1  0
 18 19  1  0
 19 20  1  0
 20 21  1  0
 21 22  1  0
 22 23  1  0
 23 24  1  0
 22 25  1  0
 25 26  1  0
 25 27  2  0
 16 28  2  0
 28 29  1  0
 29 30  1  0
 29 31  2  0
 31  2  1  0
 12  7  1  0
 31 14  1  0
 24 19  1  0
M  END
$$$$
