
     RDKit          3D

 31 34  0  0  0  0  0  0  0  0999 V2000
    2.2028   -7.3667  -16.6147 O   0  0  0  0  0  0  0  0  0  0  0  0
    1.2827   -6.5763  -16.9455 C   0  0  0  0  0  0  0  0  0  0  0  0
    1.2386   -5.9775  -18.1450 N   0  0  0  0  0  0  0  0  0  0  0  0
    0.2342   -5.1223  -18.4900 C   0  0  0  0  0  0  0  0  0  0  0  0
    0.2752   -4.5085  -19.8412 C   0  0  0  0  0  0  0  0  0  0  0  0
    0.1290   -2.7216  -19.8205 S   0  0  0  0  0  0  0  0  0  0  0  0
   -1.5905   -2.1718  -19.7158 C   0  0  0  0  0  0  0  0  0  0  0  0
   -1.5872   -0.6440  -19.8165 C   0  0  0  0  0  0  0  0  0  0  0  0
   -1.7920   -0.2052  -21.2503 C   0  0  0  0  0  0  0  0  0  0  0  0
   -1.1349   -1.0296  -22.1566 O   0  0  0  0  0  0  0  0  0  0  0  0
   -1.5778   -2.3334  -22.1423 C   0  0  0  0  0  0  0  0  0  0  0  0
   -2.4038   -2.6634  -20.9103 C   0  0  0  0  0  0  0  0  0  0  0  0
   -0.7326   -4.8739  -17.6090 N   0  0  0  0  0  0  0  0  0  0  0  0
   -0.7216   -5.4562  -16.3963 C   0  0  0  0  0  0  0  0  0  0  0  0
   -1.7122   -5.2180  -15.4588 C   0  0  0  0  0  0  0  0  0  0  0  0
   -1.7235   -5.8039  -14.2059 C   0  0  0  0  0  0  0  0  0  0  0  0
   -2.6984   -5.5742  -13.2742 O   0  0  0  0  0  0  0  0  0  0  0  0
   -2.4911   -5.3201  -11.9203 C   0  0  0  0  0  0  0  0  0  0  0  0
   -3.7803   -5.3838  -11.1254 C   0  0  0  0  0  0  0  0  0  0  0  0
   -4.1291   -6.8457  -10.9469 C   0  0  0  0  0  0  0  0  0  0  0  0
   -5.3625   -6.9877  -10.0802 C   0  0  0  0  0  0  0  0  0  0  0  0
   -5.0402   -6.3863   -8.7839 N   0  0  0  0  0  0  0  0  0  0  0  0
   -3.7727   -5.7269   -8.6607 C   0  0  0  0  0  0  0  0  0  0  0  0
   -3.5187   -4.7507   -9.7842 C   0  0  0  0  0  0  0  0  0  0  0  0
   -5.9839   -6.4876   -7.7380 C   0  0  0  0  0  0  0  0  0  0  0  0
   -7.1768   -7.3582   -7.8862 C   0  0  0  0  0  0  0  0  0  0  0  0
   -5.8431   -5.8553   -6.6720 O   0  0  0  0  0  0  0  0  0  0  0  0
   -0.7049   -6.6735  -13.8509 C   0  0  0  0  0  0  0  0  0  0  0  0
    0.2928   -6.9264  -14.7677 C   0  0  0  0  0  0  0  0  0  0  0  0
    1.3171   -7.7785  -14.4588 F   0  0  0  0  0  0  0  0  0  0  0  0
    0.2883   -6.3268  -16.0266 C   0  0  0  0  0  0  0  0  0  0  0  0
  1  2  2  0
  2  3  1  0
  3  4  1  0
  4  5  1  0
  5  6  1  0
  6  7  1  0
  7  8  1  0
  8  9  1  0
  9 10  1  0
 10 11  1  0
 11 12  1  0
  4 13  2  0
 13 14  1  0
 14 15  2  0
 15 16  1  0
 16 17  1  0
 17 18  1  0
 18 19  1  0
 19 20  1  0
 20 21  1  0
 21 22  1  0
 22 23  1  0
 23 24  1  0
 22 25  1  0
 25 26  1  0
 25 27  2  0
 16 28  2  0
 28 29  1  0
 29 30  1  0
 29 31  2  0
 31  2  1  0
 12  7  1  0
 31 14  1  0
 24 19  1  0
M  END
$$$$
