
     RDKit          3D

 31 34  0  0  0  0  0  0  0  0999 V2000
    1.5745   -7.6670  -15.7928 O   0  0  0  0  0  0  0  0  0  0  0  0
    0.9302   -6.8740  -16.5256 C   0  0  0  0  0  0  0  0  0  0  0  0
    1.1539   -6.7616  -17.8434 N   0  0  0  0  0  0  0  0  0  0  0  0
    0.4471   -5.8970  -18.6258 C   0  0  0  0  0  0  0  0  0  0  0  0
    0.7700   -5.8449  -20.0740 C   0  0  0  0  0  0  0  0  0  0  0  0
    1.5092   -4.2941  -20.5873 S   0  0  0  0  0  0  0  0  0  0  0  0
    0.5925   -2.8589  -19.9792 C   0  0  0  0  0  0  0  0  0  0  0  0
    1.3201   -1.6081  -20.4796 C   0  0  0  0  0  0  0  0  0  0  0  0
    0.7199   -1.1299  -21.7840 C   0  0  0  0  0  0  0  0  0  0  0  0
    0.3524   -2.1813  -22.6160 O   0  0  0  0  0  0  0  0  0  0  0  0
   -0.6205   -2.9967  -22.0825 C   0  0  0  0  0  0  0  0  0  0  0  0
   -0.8059   -2.7953  -20.5878 C   0  0  0  0  0  0  0  0  0  0  0  0
   -0.4941   -5.1411  -18.0644 N   0  0  0  0  0  0  0  0  0  0  0  0
   -0.7464   -5.2266  -16.7457 C   0  0  0  0  0  0  0  0  0  0  0  0
   -1.7182   -4.4541  -16.1329 C   0  0  0  0  0  0  0  0  0  0  0  0
   -1.9965   -4.5233  -14.7797 C   0  0  0  0  0  0  0  0  0  0  0  0
   -2.9549   -3.7640  -14.1666 O   0  0  0  0  0  0  0  0  0  0  0  0
   -2.8261   -3.1226  -12.9367 C   0  0  0  0  0  0  0  0  0  0  0  0
   -2.6801   -1.6215  -13.0902 C   0  0  0  0  0  0  0  0  0  0  0  0
   -4.0742   -1.0331  -13.1227 C   0  0  0  0  0  0  0  0  0  0  0  0
   -4.0035    0.4782  -13.1833 C   0  0  0  0  0  0  0  0  0  0  0  0
   -3.3007    0.9176  -11.9753 N   0  0  0  0  0  0  0  0  0  0  0  0
   -2.7570   -0.0995  -11.1229 C   0  0  0  0  0  0  0  0  0  0  0  0
   -1.9354   -1.1118  -11.8845 C   0  0  0  0  0  0  0  0  0  0  0  0
   -3.1984    2.3026  -11.7184 C   0  0  0  0  0  0  0  0  0  0  0  0
   -4.0277    3.2697  -12.4801 C   0  0  0  0  0  0  0  0  0  0  0  0
   -2.4170    2.7474  -10.8539 O   0  0  0  0  0  0  0  0  0  0  0  0
   -1.2808   -5.4003  -13.9807 C   0  0  0  0  0  0  0  0  0  0  0  0
   -0.3078   -6.1801  -14.5683 C   0  0  0  0  0  0  0  0  0  0  0  0
    0.4221   -7.0594  -13.8168 F   0  0  0  0  0  0  0  0  0  0  0  0
   -0.0407   -6.0973  -15.9343 C   0  0  0  0  0  0  0  0  0  0  0  0
  1  2  2  0
  2  3  1  0
  3  4  1  0
  4  5  1  0
  5  6  1  0
  6  7  1  0
  7  8  1  0
  8  9  1  0
  9 10  1  0
 10 11  1  0
 11 12  1  0
  4 13  2  0
 13 14  1  0
 14 15  2  0
 15 16  1  0
 16 17  1  0
 17 18  1  0
 18 19  1  0
 19 20  1  0
 20 21  1  0
 21 22  1  0
 22 23  1  0
 23 24  1  0
 22 25  1  0
 25 26  1  0
 25 27  2  0
 16 28  2  0
 28 29  1  0
 29 30  1  0
 29 31  2  0
 31  2  1  0
 12  7  1  0
 31 14  1  0
 24 19  1  0
M  END
$$$$
