
     RDKit          3D

 31 34  0  0  0  0  0  0  0  0999 V2000
    1.8512   -7.2255  -16.2199 O   0  0  0  0  0  0  0  0  0  0  0  0
    1.0406   -6.2842  -16.4144 C   0  0  0  0  0  0  0  0  0  0  0  0
    1.1675   -5.4173  -17.4301 N   0  0  0  0  0  0  0  0  0  0  0  0
    0.2804   -4.4009  -17.6287 C   0  0  0  0  0  0  0  0  0  0  0  0
    0.5080   -3.4929  -18.7811 C   0  0  0  0  0  0  0  0  0  0  0  0
   -1.0040   -2.8232  -19.4741 S   0  0  0  0  0  0  0  0  0  0  0  0
   -1.5771   -3.7588  -20.9115 C   0  0  0  0  0  0  0  0  0  0  0  0
   -3.0137   -3.3153  -21.2007 C   0  0  0  0  0  0  0  0  0  0  0  0
   -3.0304   -2.2028  -22.2266 C   0  0  0  0  0  0  0  0  0  0  0  0
   -1.9770   -1.3110  -22.0596 O   0  0  0  0  0  0  0  0  0  0  0  0
   -0.7348   -1.8851  -22.2131 C   0  0  0  0  0  0  0  0  0  0  0  0
   -0.7750   -3.4032  -22.1606 C   0  0  0  0  0  0  0  0  0  0  0  0
   -0.7432   -4.2648  -16.7884 N   0  0  0  0  0  0  0  0  0  0  0  0
   -0.9028   -5.1153  -15.7583 C   0  0  0  0  0  0  0  0  0  0  0  0
   -1.9565   -4.9999  -14.8678 C   0  0  0  0  0  0  0  0  0  0  0  0
   -2.1425   -5.8609  -13.8014 C   0  0  0  0  0  0  0  0  0  0  0  0
   -3.1808   -5.7540  -12.9173 O   0  0  0  0  0  0  0  0  0  0  0  0
   -3.1007   -5.2545  -11.6194 C   0  0  0  0  0  0  0  0  0  0  0  0
   -4.3325   -5.5917  -10.8027 C   0  0  0  0  0  0  0  0  0  0  0  0
   -4.1838   -7.0219  -10.3306 C   0  0  0  0  0  0  0  0  0  0  0  0
   -5.3405   -7.3988   -9.4291 C   0  0  0  0  0  0  0  0  0  0  0  0
   -5.3000   -6.4852   -8.2847 N   0  0  0  0  0  0  0  0  0  0  0  0
   -4.3314   -5.4283   -8.3196 C   0  0  0  0  0  0  0  0  0  0  0  0
   -4.3620   -4.6606   -9.6194 C   0  0  0  0  0  0  0  0  0  0  0  0
   -6.2061   -6.6926   -7.2213 C   0  0  0  0  0  0  0  0  0  0  0  0
   -6.3269   -5.6907   -6.1329 C   0  0  0  0  0  0  0  0  0  0  0  0
   -6.9225   -7.7124   -7.1673 O   0  0  0  0  0  0  0  0  0  0  0  0
   -1.2437   -6.8951  -13.5957 C   0  0  0  0  0  0  0  0  0  0  0  0
   -0.1861   -7.0304  -14.4693 C   0  0  0  0  0  0  0  0  0  0  0  0
    0.7245   -8.0374  -14.3033 F   0  0  0  0  0  0  0  0  0  0  0  0
   -0.0141   -6.1530  -15.5393 C   0  0  0  0  0  0  0  0  0  0  0  0
  1  2  2  0
  2  3  1  0
  3  4  1  0
  4  5  1  0
  5  6  1  0
  6  7  1  0
  7  8  1  0
  8  9  1  0
  9 10  1  0
 10 11  1  0
 11 12  1  0
  4 13  2  0
 13 14  1  0
 14 15  2  0
 15 16  1  0
 16 17  1  0
 17 18  1  0
 18 19  1  0
 19 20  1  0
 20 21  1  0
 21 22  1  0
 22 23  1  0
 23 24  1  0
 22 25  1  0
 25 26  1  0
 25 27  2  0
 16 28  2  0
 28 29  1  0
 29 30  1  0
 29 31  2  0
 31  2  1  0
 12  7  1  0
 31 14  1  0
 24 19  1  0
M  END
$$$$
