
     RDKit          3D

 31 34  0  0  0  0  0  0  0  0999 V2000
    1.3671   -7.6904  -16.2568 O   0  0  0  0  0  0  0  0  0  0  0  0
    0.8352   -6.6589  -16.7404 C   0  0  0  0  0  0  0  0  0  0  0  0
    1.1919   -6.1494  -17.9288 N   0  0  0  0  0  0  0  0  0  0  0  0
    0.6061   -5.0295  -18.4409 C   0  0  0  0  0  0  0  0  0  0  0  0
    1.0714   -4.5429  -19.7641 C   0  0  0  0  0  0  0  0  0  0  0  0
    0.5397   -2.8723  -20.1399 S   0  0  0  0  0  0  0  0  0  0  0  0
   -1.0628   -2.8307  -20.9767 C   0  0  0  0  0  0  0  0  0  0  0  0
   -1.4282   -1.3590  -21.1883 C   0  0  0  0  0  0  0  0  0  0  0  0
   -0.9788   -0.8908  -22.5555 C   0  0  0  0  0  0  0  0  0  0  0  0
    0.2474   -1.4319  -22.9251 O   0  0  0  0  0  0  0  0  0  0  0  0
    0.2383   -2.8048  -23.0311 C   0  0  0  0  0  0  0  0  0  0  0  0
   -0.9752   -3.4402  -22.3734 C   0  0  0  0  0  0  0  0  0  0  0  0
   -0.3493   -4.4233  -17.7395 N   0  0  0  0  0  0  0  0  0  0  0  0
   -0.7333   -4.9055  -16.5437 C   0  0  0  0  0  0  0  0  0  0  0  0
   -1.7235   -4.2977  -15.7909 C   0  0  0  0  0  0  0  0  0  0  0  0
   -2.1359   -4.7735  -14.5594 C   0  0  0  0  0  0  0  0  0  0  0  0
   -3.1135   -4.1792  -13.8095 O   0  0  0  0  0  0  0  0  0  0  0  0
   -3.1326   -4.0834  -12.4199 C   0  0  0  0  0  0  0  0  0  0  0  0
   -2.5303   -2.7810  -11.9308 C   0  0  0  0  0  0  0  0  0  0  0  0
   -3.6570   -1.7767  -11.8180 C   0  0  0  0  0  0  0  0  0  0  0  0
   -3.1412   -0.4732  -11.2458 C   0  0  0  0  0  0  0  0  0  0  0  0
   -2.6045   -0.7775   -9.9170 N   0  0  0  0  0  0  0  0  0  0  0  0
   -2.5650   -2.1556   -9.5224 C   0  0  0  0  0  0  0  0  0  0  0  0
   -1.9336   -3.0383  -10.5723 C   0  0  0  0  0  0  0  0  0  0  0  0
   -2.1608    0.2904   -9.1061 C   0  0  0  0  0  0  0  0  0  0  0  0
   -1.4845    0.0191   -7.8130 C   0  0  0  0  0  0  0  0  0  0  0  0
   -2.3229    1.4785   -9.4498 O   0  0  0  0  0  0  0  0  0  0  0  0
   -1.5435   -5.9110  -14.0350 C   0  0  0  0  0  0  0  0  0  0  0  0
   -0.5550   -6.5339  -14.7663 C   0  0  0  0  0  0  0  0  0  0  0  0
    0.0562   -7.6595  -14.2864 F   0  0  0  0  0  0  0  0  0  0  0  0
   -0.1517   -6.0402  -16.0064 C   0  0  0  0  0  0  0  0  0  0  0  0
  1  2  2  0
  2  3  1  0
  3  4  1  0
  4  5  1  0
  5  6  1  0
  6  7  1  0
  7  8  1  0
  8  9  1  0
  9 10  1  0
 10 11  1  0
 11 12  1  0
  4 13  2  0
 13 14  1  0
 14 15  2  0
 15 16  1  0
 16 17  1  0
 17 18  1  0
 18 19  1  0
 19 20  1  0
 20 21  1  0
 21 22  1  0
 22 23  1  0
 23 24  1  0
 22 25  1  0
 25 26  1  0
 25 27  2  0
 16 28  2  0
 28 29  1  0
 29 30  1  0
 29 31  2  0
 31  2  1  0
 12  7  1  0
 31 14  1  0
 24 19  1  0
M  END
$$$$
