
     RDKit          3D

 31 34  0  0  0  0  0  0  0  0999 V2000
    1.3600   -7.7990  -16.1189 O   0  0  0  0  0  0  0  0  0  0  0  0
    0.8662   -6.8300  -16.7497 C   0  0  0  0  0  0  0  0  0  0  0  0
    1.1389   -6.5922  -18.0414 N   0  0  0  0  0  0  0  0  0  0  0  0
    0.5959   -5.5369  -18.7129 C   0  0  0  0  0  0  0  0  0  0  0  0
    0.9605   -5.3578  -20.1409 C   0  0  0  0  0  0  0  0  0  0  0  0
    0.9646   -3.6443  -20.6691 S   0  0  0  0  0  0  0  0  0  0  0  0
   -0.6979   -3.0289  -21.0257 C   0  0  0  0  0  0  0  0  0  0  0  0
   -0.7124   -1.5351  -20.6904 C   0  0  0  0  0  0  0  0  0  0  0  0
   -0.4096   -0.7105  -21.9228 C   0  0  0  0  0  0  0  0  0  0  0  0
    0.5550   -1.3002  -22.7320 O   0  0  0  0  0  0  0  0  0  0  0  0
    0.1818   -2.5259  -23.2364 C   0  0  0  0  0  0  0  0  0  0  0  0
   -1.0160   -3.1216  -22.5157 C   0  0  0  0  0  0  0  0  0  0  0  0
   -0.2305   -4.7174  -18.0665 N   0  0  0  0  0  0  0  0  0  0  0  0
   -0.5272   -4.9244  -16.7707 C   0  0  0  0  0  0  0  0  0  0  0  0
   -1.3826   -4.0901  -16.0714 C   0  0  0  0  0  0  0  0  0  0  0  0
   -1.7033   -4.2814  -14.7395 C   0  0  0  0  0  0  0  0  0  0  0  0
   -2.5476   -3.4622  -14.0415 O   0  0  0  0  0  0  0  0  0  0  0  0
   -2.1837   -2.6077  -13.0032 C   0  0  0  0  0  0  0  0  0  0  0  0
   -3.2517   -1.5698  -12.7195 C   0  0  0  0  0  0  0  0  0  0  0  0
   -3.0027   -1.0348  -11.3258 C   0  0  0  0  0  0  0  0  0  0  0  0
   -3.9815    0.0761  -11.0087 C   0  0  0  0  0  0  0  0  0  0  0  0
   -3.7584    1.1320  -11.9994 N   0  0  0  0  0  0  0  0  0  0  0  0
   -2.8260    0.8591  -13.0542 C   0  0  0  0  0  0  0  0  0  0  0  0
   -3.0911   -0.4648  -13.7302 C   0  0  0  0  0  0  0  0  0  0  0  0
   -4.4651    2.3473  -11.8633 C   0  0  0  0  0  0  0  0  0  0  0  0
   -4.3367    3.4086  -12.8929 C   0  0  0  0  0  0  0  0  0  0  0  0
   -5.2087    2.5607  -10.8847 O   0  0  0  0  0  0  0  0  0  0  0  0
   -1.1539   -5.3523  -14.0531 C   0  0  0  0  0  0  0  0  0  0  0  0
   -0.2992   -6.1970  -14.7283 C   0  0  0  0  0  0  0  0  0  0  0  0
    0.2652   -7.2664  -14.0892 F   0  0  0  0  0  0  0  0  0  0  0  0
    0.0131   -5.9890  -16.0713 C   0  0  0  0  0  0  0  0  0  0  0  0
  1  2  2  0
  2  3  1  0
  3  4  1  0
  4  5  1  0
  5  6  1  0
  6  7  1  0
  7  8  1  0
  8  9  1  0
  9 10  1  0
 10 11  1  0
 11 12  1  0
  4 13  2  0
 13 14  1  0
 14 15  2  0
 15 16  1  0
 16 17  1  0
 17 18  1  0
 18 19  1  0
 19 20  1  0
 20 21  1  0
 21 22  1  0
 22 23  1  0
 23 24  1  0
 22 25  1  0
 25 26  1  0
 25 27  2  0
 16 28  2  0
 28 29  1  0
 29 30  1  0
 29 31  2  0
 31  2  1  0
 12  7  1  0
 31 14  1  0
 24 19  1  0
M  END
$$$$
