
     RDKit          3D

 31 34  0  0  0  0  0  0  0  0999 V2000
    1.7646   -7.8668  -16.1354 O   0  0  0  0  0  0  0  0  0  0  0  0
    1.0003   -7.0179  -16.6607 C   0  0  0  0  0  0  0  0  0  0  0  0
    1.0657   -6.6903  -17.9598 N   0  0  0  0  0  0  0  0  0  0  0  0
    0.2299   -5.7675  -18.5160 C   0  0  0  0  0  0  0  0  0  0  0  0
    0.3820   -5.4725  -19.9631 C   0  0  0  0  0  0  0  0  0  0  0  0
    1.0028   -3.8237  -20.2962 S   0  0  0  0  0  0  0  0  0  0  0  0
   -0.1324   -2.5332  -19.7343 C   0  0  0  0  0  0  0  0  0  0  0  0
    0.4808   -1.1856  -20.1242 C   0  0  0  0  0  0  0  0  0  0  0  0
   -0.0517   -0.7269  -21.4645 C   0  0  0  0  0  0  0  0  0  0  0  0
   -0.2120   -1.7784  -22.3598 O   0  0  0  0  0  0  0  0  0  0  0  0
   -1.1235   -2.7242  -21.9468 C   0  0  0  0  0  0  0  0  0  0  0  0
   -1.4671   -2.6090  -20.4712 C   0  0  0  0  0  0  0  0  0  0  0  0
   -0.6790   -5.1734  -17.7458 N   0  0  0  0  0  0  0  0  0  0  0  0
   -0.7741   -5.4766  -16.4385 C   0  0  0  0  0  0  0  0  0  0  0  0
   -1.7084   -4.8762  -15.6119 C   0  0  0  0  0  0  0  0  0  0  0  0
   -1.8262   -5.1704  -14.2655 C   0  0  0  0  0  0  0  0  0  0  0  0
   -2.7465   -4.5820  -13.4422 O   0  0  0  0  0  0  0  0  0  0  0  0
   -2.8273   -4.7421  -12.0607 C   0  0  0  0  0  0  0  0  0  0  0  0
   -2.4296   -3.4820  -11.3176 C   0  0  0  0  0  0  0  0  0  0  0  0
   -3.6697   -2.9526  -10.6302 C   0  0  0  0  0  0  0  0  0  0  0  0
   -3.3260   -1.7401   -9.7910 C   0  0  0  0  0  0  0  0  0  0  0  0
   -2.3475   -2.1797   -8.7933 N   0  0  0  0  0  0  0  0  0  0  0  0
   -1.8624   -3.5253   -8.8950 C   0  0  0  0  0  0  0  0  0  0  0  0
   -1.3977   -3.8670  -10.2904 C   0  0  0  0  0  0  0  0  0  0  0  0
   -1.9403   -1.2654   -7.7968 C   0  0  0  0  0  0  0  0  0  0  0  0
   -2.6750    0.0098   -7.6038 C   0  0  0  0  0  0  0  0  0  0  0  0
   -0.9624   -1.5009   -7.0591 O   0  0  0  0  0  0  0  0  0  0  0  0
   -0.9791   -6.1074  -13.6960 C   0  0  0  0  0  0  0  0  0  0  0  0
   -0.0404   -6.7188  -14.4991 C   0  0  0  0  0  0  0  0  0  0  0  0
    0.8156   -7.6498  -13.9780 F   0  0  0  0  0  0  0  0  0  0  0  0
    0.0642   -6.4099  -15.8548 C   0  0  0  0  0  0  0  0  0  0  0  0
  1  2  2  0
  2  3  1  0
  3  4  1  0
  4  5  1  0
  5  6  1  0
  6  7  1  0
  7  8  1  0
  8  9  1  0
  9 10  1  0
 10 11  1  0
 11 12  1  0
  4 13  2  0
 13 14  1  0
 14 15  2  0
 15 16  1  0
 16 17  1  0
 17 18  1  0
 18 19  1  0
 19 20  1  0
 20 21  1  0
 21 22  1  0
 22 23  1  0
 23 24  1  0
 22 25  1  0
 25 26  1  0
 25 27  2  0
 16 28  2  0
 28 29  1  0
 29 30  1  0
 29 31  2  0
 31  2  1  0
 12  7  1  0
 31 14  1  0
 24 19  1  0
M  END
$$$$
