
     RDKit          3D

 31 34  0  0  0  0  0  0  0  0999 V2000
    1.8149   -7.6496  -16.0926 O   0  0  0  0  0  0  0  0  0  0  0  0
    0.8437   -6.8613  -15.9655 C   0  0  0  0  0  0  0  0  0  0  0  0
    0.1245   -6.7743  -14.8366 N   0  0  0  0  0  0  0  0  0  0  0  0
   -0.9266   -5.9144  -14.7130 C   0  0  0  0  0  0  0  0  0  0  0  0
   -1.6612   -5.8929  -13.4230 C   0  0  0  0  0  0  0  0  0  0  0  0
   -1.9912   -4.2389  -12.8147 S   0  0  0  0  0  0  0  0  0  0  0  0
   -0.5292   -3.4708  -12.0781 C   0  0  0  0  0  0  0  0  0  0  0  0
   -0.9136   -2.0413  -11.6872 C   0  0  0  0  0  0  0  0  0  0  0  0
   -1.3655   -1.9879  -10.2438 C   0  0  0  0  0  0  0  0  0  0  0  0
   -2.1107   -3.1036   -9.8795 O   0  0  0  0  0  0  0  0  0  0  0  0
   -1.4137   -4.2881   -9.9653 C   0  0  0  0  0  0  0  0  0  0  0  0
   -0.1348   -4.1638  -10.7764 C   0  0  0  0  0  0  0  0  0  0  0  0
   -1.2489   -5.1373  -15.7448 N   0  0  0  0  0  0  0  0  0  0  0  0
   -0.5504   -5.1971  -16.8930 C   0  0  0  0  0  0  0  0  0  0  0  0
   -0.8610   -4.4023  -17.9833 C   0  0  0  0  0  0  0  0  0  0  0  0
   -0.1588   -4.4450  -19.1742 C   0  0  0  0  0  0  0  0  0  0  0  0
   -0.4589   -3.6631  -20.2557 O   0  0  0  0  0  0  0  0  0  0  0  0
   -1.0770   -2.4153  -20.2155 C   0  0  0  0  0  0  0  0  0  0  0  0
   -1.1064   -1.7506  -21.5776 C   0  0  0  0  0  0  0  0  0  0  0  0
   -1.6671   -0.3576  -21.3884 C   0  0  0  0  0  0  0  0  0  0  0  0
   -1.6406    0.4000  -22.6991 C   0  0  0  0  0  0  0  0  0  0  0  0
   -0.2383    0.4754  -23.1159 N   0  0  0  0  0  0  0  0  0  0  0  0
    0.7228   -0.2386  -22.3265 C   0  0  0  0  0  0  0  0  0  0  0  0
    0.3131   -1.6699  -22.0744 C   0  0  0  0  0  0  0  0  0  0  0  0
    0.0875    1.2384  -24.2589 C   0  0  0  0  0  0  0  0  0  0  0  0
    1.5039    1.4075  -24.6689 C   0  0  0  0  0  0  0  0  0  0  0  0
   -0.7962    1.7858  -24.9485 O   0  0  0  0  0  0  0  0  0  0  0  0
    0.9100   -5.3172  -19.3043 C   0  0  0  0  0  0  0  0  0  0  0  0
    1.2385   -6.1188  -18.2322 C   0  0  0  0  0  0  0  0  0  0  0  0
    2.2862   -6.9939  -18.3174 F   0  0  0  0  0  0  0  0  0  0  0  0
    0.5193   -6.0626  -17.0389 C   0  0  0  0  0  0  0  0  0  0  0  0
  1  2  2  0
  2  3  1  0
  3  4  1  0
  4  5  1  0
  5  6  1  0
  6  7  1  0
  7  8  1  0
  8  9  1  0
  9 10  1  0
 10 11  1  0
 11 12  1  0
  4 13  2  0
 13 14  1  0
 14 15  2  0
 15 16  1  0
 16 17  1  0
 17 18  1  0
 18 19  1  0
 19 20  1  0
 20 21  1  0
 21 22  1  0
 22 23  1  0
 23 24  1  0
 22 25  1  0
 25 26  1  0
 25 27  2  0
 16 28  2  0
 28 29  1  0
 29 30  1  0
 29 31  2  0
 31  2  1  0
 12  7  1  0
 31 14  1  0
 24 19  1  0
M  END
$$$$
