# created with PyMOL 3.0.5
@<TRIPOS>MOLECULE
rank4_complex_lddt0.58_affinity5.76_relaxed
49 52 1                 
SMALL
USER_CHARGES
@<TRIPOS>ATOM
1	 H1x	2.205	21.624	28.968	 H	1	UNK0	0.000	
2	 O1x	2.900	22.104	29.452	O.3	1	UNK0	0.000	
3	 C1x	2.297	23.022	30.365	C.3	1	UNK0	0.000	
4	 H2x	2.929	23.071	31.260	 H	1	UNK0	0.000	
5	 C2x	2.268	24.437	29.741	C.3	1	UNK0	0.000	
6	 H3x	1.942	25.146	30.512	 H	1	UNK0	0.000	
7	 H4x	3.282	24.743	29.456	 H	1	UNK0	0.000	
8	 C3x	1.316	24.564	28.520	C.3	1	UNK0	0.000	
9	 H5x	0.972	25.604	28.456	 H	1	UNK0	0.000	
10	 H6x	1.876	24.366	27.597	 H	1	UNK0	0.000	
11	 C4x	0.102	23.606	28.583	C.3	1	UNK0	0.000	
12	 H7x	0.391	22.694	28.046	 H	1	UNK0	0.000	
13	 S1x	-1.354	24.335	27.744	S.3	1	UNK0	0.000	
14	 C5x	-1.234	23.505	26.104	C.3	1	UNK0	0.000	
15	 H8x	-1.363	22.426	26.248	 H	1	UNK0	0.000	
16	 H9x	-2.090	23.884	25.533	 H	1	UNK0	0.000	
17	 C6x	0.028	23.810	25.309	C.2	1	UNK0	0.000	
18	 N1x	0.190	25.027	24.803	N.2	1	UNK0	0.000	
19	 C7x	1.320	25.247	24.064	C.2	1	UNK0	0.000	
20	 C8x	1.512	26.548	23.585	C.2	1	UNK0	0.000	
21	H10x	0.752	27.287	23.821	 H	1	UNK0	0.000	
22	 C9x	2.654	26.876	22.831	C.2	1	UNK0	0.000	
23	 O2x	2.887	28.147	22.354	O.3	1	UNK0	0.000	
24	C10x	2.134	29.292	22.809	C.3	1	UNK0	0.000	
25	H11x	1.056	29.097	22.743	 H	1	UNK0	0.000	
26	H12x	2.376	29.506	23.857	 H	1	UNK0	0.000	
27	C11x	2.466	30.520	21.934	C.3	1	UNK0	0.000	
28	H13x	1.731	31.311	22.059	 H	1	UNK0	0.000	
29	C12x	3.895	30.971	21.740	C.3	1	UNK0	0.000	
30	H14x	4.098	32.039	21.751	 H	1	UNK0	0.000	
31	H15x	4.684	30.359	22.171	 H	1	UNK0	0.000	
32	C13x	3.126	30.406	20.570	C.3	1	UNK0	0.000	
33	H16x	2.818	31.099	19.792	 H	1	UNK0	0.000	
34	H17x	3.383	29.410	20.217	 H	1	UNK0	0.000	
35	C14x	3.587	25.881	22.529	C.2	1	UNK0	0.000	
36	H18x	4.466	26.123	21.940	 H	1	UNK0	0.000	
37	C15x	3.393	24.572	22.988	C.2	1	UNK0	0.000	
38	 F1x	4.290	23.639	22.617	 F	1	UNK0	0.000	
39	C16x	2.267	24.248	23.774	C.2	1	UNK0	0.000	
40	C17x	2.012	22.889	24.312	C.2	1	UNK0	0.000	
41	 O3x	2.688	21.916	24.085	O.2	1	UNK0	0.000	
42	 N2x	0.917	22.783	25.089	N.2	1	UNK0	0.000	
43	H19x	0.747	21.842	25.424	 H	1	UNK0	0.000	
44	C18x	-0.283	23.245	30.038	C.3	1	UNK0	0.000	
45	H20x	-0.561	24.172	30.554	 H	1	UNK0	0.000	
46	H21x	-1.180	22.615	30.076	 H	1	UNK0	0.000	
47	C19x	0.876	22.580	30.825	C.3	1	UNK0	0.000	
48	H22x	0.758	22.880	31.874	 H	1	UNK0	0.000	
49	H23x	0.771	21.489	30.842	 H	1	UNK0	0.000	
@<TRIPOS>BOND
1 1 2 1
2 2 3 1
3 3 4 1
4 3 5 1
5 3 47 1
6 5 6 1
7 5 7 1
8 5 8 1
9 8 9 1
10 8 10 1
11 8 11 1
12 11 12 1
13 11 13 1
14 11 44 1
15 13 14 1
16 14 15 1
17 14 16 1
18 14 17 1
19 17 18 ar
20 17 42 ar
21 18 19 ar
22 19 20 ar
23 19 39 ar
24 20 21 1
25 20 22 ar
26 22 23 1
27 22 35 ar
28 23 24 1
29 24 25 1
30 24 26 1
31 24 27 1
32 27 28 1
33 27 29 1
34 27 32 1
35 29 30 1
36 29 31 1
37 29 32 1
38 32 33 1
39 32 34 1
40 35 36 1
41 35 37 ar
42 37 38 1
43 37 39 ar
44 39 40 ar
45 40 41 2
46 40 42 ar
47 42 43 1
48 44 45 1
49 44 46 1
50 44 47 1
51 47 48 1
52 47 49 1
@<TRIPOS>SUBSTRUCTURE
1	UNK0	1	GROUP	1 X	UNK
