# created with PyMOL 3.0.5
@<TRIPOS>MOLECULE
rank8_complex_lddt0.43_affinity6.23_relaxed
49 52 1                 
SMALL
USER_CHARGES
@<TRIPOS>ATOM
1	 H1x	32.057	-27.606	-28.985	 H	1	UNK0	0.000	
2	 O1x	32.153	-27.422	-29.936	O.3	1	UNK0	0.000	
3	 C1x	31.453	-28.451	-30.632	C.3	1	UNK0	0.000	
4	 H2x	32.122	-29.311	-30.756	 H	1	UNK0	0.000	
5	 C2x	30.230	-28.894	-29.796	C.3	1	UNK0	0.000	
6	 H3x	29.724	-29.711	-30.325	 H	1	UNK0	0.000	
7	 H4x	30.555	-29.303	-28.831	 H	1	UNK0	0.000	
8	 C3x	29.213	-27.745	-29.572	C.3	1	UNK0	0.000	
9	 H5x	28.226	-28.192	-29.400	 H	1	UNK0	0.000	
10	 H6x	29.467	-27.199	-28.656	 H	1	UNK0	0.000	
11	 C4x	29.146	-26.735	-30.755	C.3	1	UNK0	0.000	
12	 H7x	29.821	-25.899	-30.536	 H	1	UNK0	0.000	
13	 S1x	27.437	-26.076	-30.887	S.3	1	UNK0	0.000	
14	 C5x	27.689	-24.434	-31.714	C.3	1	UNK0	0.000	
15	 H8x	27.565	-23.649	-30.957	 H	1	UNK0	0.000	
16	 H9x	28.725	-24.386	-32.072	 H	1	UNK0	0.000	
17	 C6x	26.740	-24.158	-32.875	C.2	1	UNK0	0.000	
18	 N1x	25.457	-24.468	-32.774	N.2	1	UNK0	0.000	
19	 C7x	24.644	-24.155	-33.830	C.2	1	UNK0	0.000	
20	 C8x	23.289	-24.494	-33.724	C.2	1	UNK0	0.000	
21	H10x	22.974	-25.024	-32.830	 H	1	UNK0	0.000	
22	 C9x	22.381	-24.183	-34.755	C.2	1	UNK0	0.000	
23	 O2x	21.052	-24.527	-34.725	O.3	1	UNK0	0.000	
24	C10x	20.431	-25.128	-33.577	C.3	1	UNK0	0.000	
25	H11x	21.046	-25.948	-33.187	 H	1	UNK0	0.000	
26	H12x	20.273	-24.376	-32.794	 H	1	UNK0	0.000	
27	C11x	19.098	-25.697	-34.052	C.3	1	UNK0	0.000	
28	H13x	19.139	-26.146	-35.041	 H	1	UNK0	0.000	
29	C12x	18.241	-26.395	-33.033	C.3	1	UNK0	0.000	
30	H14x	17.653	-27.267	-33.310	 H	1	UNK0	0.000	
31	H15x	18.600	-26.400	-32.007	 H	1	UNK0	0.000	
32	C13x	17.789	-25.079	-33.603	C.3	1	UNK0	0.000	
33	H16x	16.900	-25.131	-34.227	 H	1	UNK0	0.000	
34	H17x	17.807	-24.232	-32.921	 H	1	UNK0	0.000	
35	C14x	22.844	-23.552	-35.906	C.2	1	UNK0	0.000	
36	H18x	22.150	-23.323	-36.709	 H	1	UNK0	0.000	
37	C15x	24.199	-23.242	-36.040	C.2	1	UNK0	0.000	
38	 F1x	24.604	-22.670	-37.193	 F	1	UNK0	0.000	
39	C16x	25.109	-23.539	-35.005	C.2	1	UNK0	0.000	
40	C17x	26.564	-23.252	-35.101	C.2	1	UNK0	0.000	
41	 O3x	27.126	-22.776	-36.068	O.2	1	UNK0	0.000	
42	 N2x	27.282	-23.578	-34.001	N.2	1	UNK0	0.000	
43	H19x	28.270	-23.363	-34.060	 H	1	UNK0	0.000	
44	C18x	29.582	-27.368	-32.100	C.3	1	UNK0	0.000	
45	H20x	28.880	-28.170	-32.360	 H	1	UNK0	0.000	
46	H21x	29.521	-26.625	-32.904	 H	1	UNK0	0.000	
47	C19x	31.022	-27.953	-32.045	C.3	1	UNK0	0.000	
48	H22x	31.075	-28.794	-32.748	 H	1	UNK0	0.000	
49	H23x	31.741	-27.208	-32.410	 H	1	UNK0	0.000	
@<TRIPOS>BOND
1 1 2 1
2 2 3 1
3 3 4 1
4 3 5 1
5 3 47 1
6 5 6 1
7 5 7 1
8 5 8 1
9 8 9 1
10 8 10 1
11 8 11 1
12 11 12 1
13 11 13 1
14 11 44 1
15 13 14 1
16 14 15 1
17 14 16 1
18 14 17 1
19 17 18 ar
20 17 42 ar
21 18 19 ar
22 19 20 ar
23 19 39 ar
24 20 21 1
25 20 22 ar
26 22 23 1
27 22 35 ar
28 23 24 1
29 24 25 1
30 24 26 1
31 24 27 1
32 27 28 1
33 27 29 1
34 27 32 1
35 29 30 1
36 29 31 1
37 29 32 1
38 32 33 1
39 32 34 1
40 35 36 1
41 35 37 ar
42 37 38 1
43 37 39 ar
44 39 40 ar
45 40 41 2
46 40 42 ar
47 42 43 1
48 44 45 1
49 44 46 1
50 44 47 1
51 47 48 1
52 47 49 1
@<TRIPOS>SUBSTRUCTURE
1	UNK0	1	GROUP	1 X	UNK
