# created with PyMOL 3.0.5
@<TRIPOS>MOLECULE
rank6_complex_lddt0.49_affinity6.28_relaxed
49 52 1                 
SMALL
USER_CHARGES
@<TRIPOS>ATOM
1	 H1x	27.837	-32.963	-35.434	 H	1	UNK0	0.000	
2	 O1x	28.650	-32.816	-35.948	O.3	1	UNK0	0.000	
3	 C1x	29.672	-32.480	-35.022	C.3	1	UNK0	0.000	
4	 H2x	30.243	-33.386	-34.782	 H	1	UNK0	0.000	
5	 C2x	30.623	-31.435	-35.658	C.3	1	UNK0	0.000	
6	 H3x	31.450	-31.251	-34.961	 H	1	UNK0	0.000	
7	 H4x	31.076	-31.842	-36.570	 H	1	UNK0	0.000	
8	 C3x	29.924	-30.081	-35.973	C.3	1	UNK0	0.000	
9	 H5x	30.651	-29.272	-35.829	 H	1	UNK0	0.000	
10	 H6x	29.632	-30.054	-37.030	 H	1	UNK0	0.000	
11	 C4x	28.670	-29.822	-35.101	C.3	1	UNK0	0.000	
12	 H7x	27.820	-30.319	-35.585	 H	1	UNK0	0.000	
13	 S1x	28.288	-28.027	-35.013	S.3	1	UNK0	0.000	
14	 C5x	26.488	-28.158	-35.417	C.3	1	UNK0	0.000	
15	 H8x	26.403	-28.356	-36.492	 H	1	UNK0	0.000	
16	 H9x	26.097	-29.039	-34.894	 H	1	UNK0	0.000	
17	 C6x	25.607	-26.979	-35.047	C.2	1	UNK0	0.000	
18	 N1x	25.792	-26.327	-33.903	N.2	1	UNK0	0.000	
19	 C7x	24.793	-25.451	-33.538	C.2	1	UNK0	0.000	
20	 C8x	24.926	-24.787	-32.305	C.2	1	UNK0	0.000	
21	H10x	25.771	-25.013	-31.661	 H	1	UNK0	0.000	
22	 C9x	23.923	-23.910	-31.848	C.2	1	UNK0	0.000	
23	 O2x	24.039	-23.312	-30.611	O.3	1	UNK0	0.000	
24	C10x	22.889	-23.209	-29.736	C.3	1	UNK0	0.000	
25	H11x	21.969	-22.970	-30.285	 H	1	UNK0	0.000	
26	H12x	22.734	-24.149	-29.192	 H	1	UNK0	0.000	
27	C11x	23.176	-22.064	-28.764	C.3	1	UNK0	0.000	
28	H13x	23.370	-21.129	-29.282	 H	1	UNK0	0.000	
29	C12x	22.487	-21.956	-27.418	C.3	1	UNK0	0.000	
30	H14x	22.219	-20.966	-27.059	 H	1	UNK0	0.000	
31	H15x	21.783	-22.731	-27.126	 H	1	UNK0	0.000	
32	C13x	23.952	-22.333	-27.500	C.3	1	UNK0	0.000	
33	H16x	24.720	-21.606	-27.248	 H	1	UNK0	0.000	
34	H17x	24.235	-23.366	-27.313	 H	1	UNK0	0.000	
35	C14x	22.800	-23.666	-32.651	C.2	1	UNK0	0.000	
36	H18x	22.009	-22.991	-32.338	 H	1	UNK0	0.000	
37	C15x	22.667	-24.304	-33.884	C.2	1	UNK0	0.000	
38	 F1x	21.585	-24.010	-34.637	 F	1	UNK0	0.000	
39	C16x	23.655	-25.194	-34.336	C.2	1	UNK0	0.000	
40	C17x	23.571	-25.857	-35.662	C.2	1	UNK0	0.000	
41	 O3x	22.738	-25.646	-36.525	O.2	1	UNK0	0.000	
42	 N2x	24.571	-26.724	-35.911	N.2	1	UNK0	0.000	
43	H19x	24.455	-27.252	-36.768	 H	1	UNK0	0.000	
44	C18x	28.818	-30.415	-33.687	C.3	1	UNK0	0.000	
45	H20x	29.665	-29.939	-33.178	 H	1	UNK0	0.000	
46	H21x	27.919	-30.185	-33.102	 H	1	UNK0	0.000	
47	C19x	29.025	-31.947	-33.718	C.3	1	UNK0	0.000	
48	H22x	29.660	-32.229	-32.868	 H	1	UNK0	0.000	
49	H23x	28.051	-32.430	-33.571	 H	1	UNK0	0.000	
@<TRIPOS>BOND
1 1 2 1
2 2 3 1
3 3 4 1
4 3 5 1
5 3 47 1
6 5 6 1
7 5 7 1
8 5 8 1
9 8 9 1
10 8 10 1
11 8 11 1
12 11 12 1
13 11 13 1
14 11 44 1
15 13 14 1
16 14 15 1
17 14 16 1
18 14 17 1
19 17 18 ar
20 17 42 ar
21 18 19 ar
22 19 20 ar
23 19 39 ar
24 20 21 1
25 20 22 ar
26 22 23 1
27 22 35 ar
28 23 24 1
29 24 25 1
30 24 26 1
31 24 27 1
32 27 28 1
33 27 29 1
34 27 32 1
35 29 30 1
36 29 31 1
37 29 32 1
38 32 33 1
39 32 34 1
40 35 36 1
41 35 37 ar
42 37 38 1
43 37 39 ar
44 39 40 ar
45 40 41 2
46 40 42 ar
47 42 43 1
48 44 45 1
49 44 46 1
50 44 47 1
51 47 48 1
52 47 49 1
@<TRIPOS>SUBSTRUCTURE
1	UNK0	1	GROUP	1 X	UNK
