# created with PyMOL 3.0.5
@<TRIPOS>MOLECULE
rank7_complex_lddt0.46_affinity6.26_relaxed
49 52 1                 
SMALL
USER_CHARGES
@<TRIPOS>ATOM
1	 H1x	29.551	-27.172	-33.154	 H	1	UNK0	0.000	
2	 O1x	30.484	-27.380	-32.974	O.3	1	UNK0	0.000	
3	 C1x	30.686	-27.258	-31.564	C.3	1	UNK0	0.000	
4	 H2x	31.599	-27.801	-31.291	 H	1	UNK0	0.000	
5	 C2x	30.885	-25.765	-31.204	C.3	1	UNK0	0.000	
6	 H3x	31.145	-25.675	-30.142	 H	1	UNK0	0.000	
7	 H4x	31.731	-25.352	-31.767	 H	1	UNK0	0.000	
8	 C3x	29.605	-24.943	-31.497	C.3	1	UNK0	0.000	
9	 H5x	29.730	-23.923	-31.114	 H	1	UNK0	0.000	
10	 H6x	29.499	-24.827	-32.583	 H	1	UNK0	0.000	
11	 C4x	28.302	-25.604	-30.949	C.3	1	UNK0	0.000	
12	 H7x	27.693	-25.906	-31.809	 H	1	UNK0	0.000	
13	 S1x	27.327	-24.389	-29.968	S.3	1	UNK0	0.000	
14	 C5x	25.655	-25.177	-30.118	C.3	1	UNK0	0.000	
15	 H8x	25.754	-26.265	-30.224	 H	1	UNK0	0.000	
16	 H9x	25.104	-24.979	-29.190	 H	1	UNK0	0.000	
17	 C6x	24.852	-24.612	-31.264	C.2	1	UNK0	0.000	
18	 N1x	24.845	-25.219	-32.456	N.2	1	UNK0	0.000	
19	 C7x	23.796	-24.854	-33.273	C.2	1	UNK0	0.000	
20	 C8x	23.633	-25.568	-34.475	C.2	1	UNK0	0.000	
21	H10x	24.309	-26.386	-34.706	 H	1	UNK0	0.000	
22	 C9x	22.572	-25.272	-35.344	C.2	1	UNK0	0.000	
23	 O2x	22.407	-25.979	-36.510	O.3	1	UNK0	0.000	
24	C10x	21.137	-26.621	-36.736	C.3	1	UNK0	0.000	
25	H11x	21.069	-27.523	-36.114	 H	1	UNK0	0.000	
26	H12x	20.301	-25.958	-36.480	 H	1	UNK0	0.000	
27	C11x	21.046	-27.009	-38.218	C.3	1	UNK0	0.000	
28	H13x	22.009	-27.004	-38.723	 H	1	UNK0	0.000	
29	C12x	20.040	-28.053	-38.659	C.3	1	UNK0	0.000	
30	H14x	20.348	-28.758	-39.426	 H	1	UNK0	0.000	
31	H15x	19.377	-28.468	-37.904	 H	1	UNK0	0.000	
32	C13x	19.847	-26.608	-39.050	C.3	1	UNK0	0.000	
33	H16x	20.019	-26.329	-40.086	 H	1	UNK0	0.000	
34	H17x	19.044	-26.061	-38.562	 H	1	UNK0	0.000	
35	C14x	21.680	-24.240	-35.033	C.2	1	UNK0	0.000	
36	H18x	20.865	-23.984	-35.704	 H	1	UNK0	0.000	
37	C15x	21.828	-23.522	-33.847	C.2	1	UNK0	0.000	
38	 F1x	20.973	-22.501	-33.620	 F	1	UNK0	0.000	
39	C16x	22.876	-23.822	-32.958	C.2	1	UNK0	0.000	
40	C17x	23.084	-23.057	-31.704	C.2	1	UNK0	0.000	
41	 O3x	22.471	-22.063	-31.361	O.2	1	UNK0	0.000	
42	 N2x	24.106	-23.500	-30.953	N.2	1	UNK0	0.000	
43	H19x	24.074	-23.158	-30.000	 H	1	UNK0	0.000	
44	C18x	28.576	-26.866	-30.084	C.3	1	UNK0	0.000	
45	H20x	29.050	-26.561	-29.143	 H	1	UNK0	0.000	
46	H21x	27.634	-27.355	-29.809	 H	1	UNK0	0.000	
47	C19x	29.489	-27.896	-30.798	C.3	1	UNK0	0.000	
48	H22x	29.877	-28.591	-30.043	 H	1	UNK0	0.000	
49	H23x	28.887	-28.502	-31.486	 H	1	UNK0	0.000	
@<TRIPOS>BOND
1 1 2 1
2 2 3 1
3 3 4 1
4 3 5 1
5 3 47 1
6 5 6 1
7 5 7 1
8 5 8 1
9 8 9 1
10 8 10 1
11 8 11 1
12 11 12 1
13 11 13 1
14 11 44 1
15 13 14 1
16 14 15 1
17 14 16 1
18 14 17 1
19 17 18 ar
20 17 42 ar
21 18 19 ar
22 19 20 ar
23 19 39 ar
24 20 21 1
25 20 22 ar
26 22 23 1
27 22 35 ar
28 23 24 1
29 24 25 1
30 24 26 1
31 24 27 1
32 27 28 1
33 27 29 1
34 27 32 1
35 29 30 1
36 29 31 1
37 29 32 1
38 32 33 1
39 32 34 1
40 35 36 1
41 35 37 ar
42 37 38 1
43 37 39 ar
44 39 40 ar
45 40 41 2
46 40 42 ar
47 42 43 1
48 44 45 1
49 44 46 1
50 44 47 1
51 47 48 1
52 47 49 1
@<TRIPOS>SUBSTRUCTURE
1	UNK0	1	GROUP	1 X	UNK
