
     RDKit          3D

 26 29  0  0  0  0  0  0  0  0999 V2000
    2.1255  -44.6878  -30.2668 S   0  0  0  0  0  0  0  0  0  0  0  0
    2.4686  -42.9629  -30.0034 C   0  0  2  0  0  0  0  0  0  0  0  0
    3.6139  -42.4445  -30.8435 C   0  0  0  0  0  0  0  0  0  0  0  0
    3.9534  -41.0174  -30.5690 C   0  0  0  0  0  0  0  0  0  0  0  0
    3.9101  -40.6359  -29.1179 C   0  0  1  0  0  0  0  0  0  0  0  0
    2.7483  -39.8702  -28.9263 O   0  0  0  0  0  0  0  0  0  0  0  0
    3.7832  -41.8453  -28.2148 C   0  0  0  0  0  0  0  0  0  0  0  0
    2.5497  -42.6431  -28.5569 C   0  0  0  0  0  0  0  0  0  0  0  0
    1.4530  -45.5924  -28.8970 C   0  0  0  0  0  0  0  0  0  0  0  0
    2.0194  -46.9442  -28.6928 C   0  0  0  0  0  0  0  0  0  0  0  0
    3.2624  -47.1078  -28.2091 N   0  0  0  0  0  0  0  0  0  0  0  0
    3.8386  -48.2898  -27.9749 C   0  0  0  0  0  0  0  0  0  0  0  0
    5.0032  -48.4328  -27.5217 O   0  0  0  0  0  0  0  0  0  0  0  0
    3.1300  -49.4505  -28.2394 C   0  0  0  0  0  0  0  0  0  0  0  0
    1.8515  -49.3048  -28.7369 C   0  0  0  0  0  0  0  0  0  0  0  0
    1.3300  -48.0838  -28.9502 N   0  0  0  0  0  0  0  0  0  0  0  0
    1.1580  -50.4653  -28.9944 C   0  0  0  0  0  0  0  0  0  0  0  0
    1.6856  -51.7205  -28.7768 C   0  0  0  0  0  0  0  0  0  0  0  0
    0.9524  -52.8813  -29.0490 O   0  0  0  0  0  0  0  0  0  0  0  0
   -0.3521  -52.8138  -29.5906 C   0  0  0  0  0  0  0  0  0  0  0  0
   -1.2621  -53.6723  -28.7689 C   0  0  0  0  0  0  0  0  0  0  0  0
   -2.0902  -54.7260  -29.3963 C   0  0  0  0  0  0  0  0  0  0  0  0
   -0.8462  -55.1361  -28.6177 C   0  0  0  0  0  0  0  0  0  0  0  0
    2.9689  -51.8194  -28.2779 C   0  0  0  0  0  0  0  0  0  0  0  0
    3.6990  -50.6824  -28.0063 C   0  0  0  0  0  0  0  0  0  0  0  0
    4.9744  -50.7686  -27.5111 F   0  0  0  0  0  0  0  0  0  0  0  0
  2  1  1  1
  2  3  1  0
  3  4  1  0
  4  5  1  0
  5  6  1  6
  5  7  1  0
  7  8  1  0
  1  9  1  0
  9 10  1  0
 10 11  1  0
 11 12  1  0
 12 13  2  0
 12 14  1  0
 14 15  2  0
 15 16  1  0
 15 17  1  0
 17 18  2  0
 18 19  1  0
 19 20  1  0
 20 21  1  0
 21 22  1  0
 22 23  1  0
 18 24  1  0
 24 25  2  0
 25 26  1  0
  8  2  1  0
 16 10  2  0
 23 21  1  0
 25 14  1  0
M  END
$$$$
