
     RDKit          3D

 26 29  0  0  0  0  0  0  0  0999 V2000
    0.5015  -50.8695  -29.8926 S   0  0  0  0  0  0  0  0  0  0  0  0
   -0.2327  -52.4791  -29.7119 C   0  0  2  0  0  0  0  0  0  0  0  0
   -1.2769  -52.7830  -30.7626 C   0  0  0  0  0  0  0  0  0  0  0  0
   -1.9485  -54.1014  -30.5685 C   0  0  0  0  0  0  0  0  0  0  0  0
   -2.2643  -54.4340  -29.1392 C   0  0  1  0  0  0  0  0  0  0  0  0
   -1.3436  -55.4123  -28.7293 O   0  0  0  0  0  0  0  0  0  0  0  0
   -2.0677  -53.2454  -28.2212 C   0  0  0  0  0  0  0  0  0  0  0  0
   -0.6544  -52.7263  -28.3110 C   0  0  0  0  0  0  0  0  0  0  0  0
    1.8896  -50.4974  -28.8525 C   0  0  0  0  0  0  0  0  0  0  0  0
    2.3464  -49.0902  -28.8875 C   0  0  0  0  0  0  0  0  0  0  0  0
    1.7114  -48.1750  -29.6390 N   0  0  0  0  0  0  0  0  0  0  0  0
    2.0448  -46.8835  -29.7091 C   0  0  0  0  0  0  0  0  0  0  0  0
    1.4438  -46.0341  -30.4158 O   0  0  0  0  0  0  0  0  0  0  0  0
    3.1186  -46.4222  -28.9652 C   0  0  0  0  0  0  0  0  0  0  0  0
    3.7847  -47.3459  -28.1865 C   0  0  0  0  0  0  0  0  0  0  0  0
    3.3971  -48.6334  -28.1611 N   0  0  0  0  0  0  0  0  0  0  0  0
    4.8487  -46.8747  -27.4517 C   0  0  0  0  0  0  0  0  0  0  0  0
    5.2510  -45.5561  -27.4716 C   0  0  0  0  0  0  0  0  0  0  0  0
    6.3378  -45.1095  -26.7110 O   0  0  0  0  0  0  0  0  0  0  0  0
    6.9775  -45.9583  -25.7783 C   0  0  0  0  0  0  0  0  0  0  0  0
    8.0173  -45.1723  -25.0426 C   0  0  0  0  0  0  0  0  0  0  0  0
    9.3105  -45.7838  -24.6639 C   0  0  0  0  0  0  0  0  0  0  0  0
    9.2729  -44.8134  -25.8382 C   0  0  0  0  0  0  0  0  0  0  0  0
    4.5555  -44.6660  -28.2650 C   0  0  0  0  0  0  0  0  0  0  0  0
    3.4836  -45.0957  -29.0174 C   0  0  0  0  0  0  0  0  0  0  0  0
    2.7859  -44.2208  -29.8093 F   0  0  0  0  0  0  0  0  0  0  0  0
  2  1  1  1
  2  3  1  0
  3  4  1  0
  4  5  1  0
  5  6  1  1
  5  7  1  0
  7  8  1  0
  1  9  1  0
  9 10  1  0
 10 11  1  0
 11 12  1  0
 12 13  2  0
 12 14  1  0
 14 15  2  0
 15 16  1  0
 15 17  1  0
 17 18  2  0
 18 19  1  0
 19 20  1  0
 20 21  1  0
 21 22  1  0
 22 23  1  0
 18 24  1  0
 24 25  2  0
 25 26  1  0
  8  2  1  0
 16 10  2  0
 23 21  1  0
 25 14  1  0
M  END
$$$$
