
     RDKit          3D

 26 29  0  0  0  0  0  0  0  0999 V2000
    0.0901  -51.9143  -30.9333 S   0  0  0  0  0  0  0  0  0  0  0  0
   -0.4822  -53.3238  -30.0121 C   0  0  2  0  0  0  0  0  0  0  0  0
   -0.7194  -54.5453  -30.8711 C   0  0  0  0  0  0  0  0  0  0  0  0
   -1.2719  -55.7061  -30.1134 C   0  0  0  0  0  0  0  0  0  0  0  0
   -2.3124  -55.3446  -29.0936 C   0  0  1  0  0  0  0  0  0  0  0  0
   -1.7085  -55.4542  -27.8303 O   0  0  0  0  0  0  0  0  0  0  0  0
   -2.7681  -53.9066  -29.2303 C   0  0  0  0  0  0  0  0  0  0  0  0
   -1.6005  -52.9599  -29.1074 C   0  0  0  0  0  0  0  0  0  0  0  0
   -0.4594  -50.3188  -30.3862 C   0  0  0  0  0  0  0  0  0  0  0  0
    0.6130  -49.3934  -29.9579 C   0  0  0  0  0  0  0  0  0  0  0  0
    0.8486  -48.2510  -30.6253 N   0  0  0  0  0  0  0  0  0  0  0  0
    1.7796  -47.3531  -30.2924 C   0  0  0  0  0  0  0  0  0  0  0  0
    1.9925  -46.2861  -30.9237 O   0  0  0  0  0  0  0  0  0  0  0  0
    2.5769  -47.5866  -29.1838 C   0  0  0  0  0  0  0  0  0  0  0  0
    2.3515  -48.7541  -28.4843 C   0  0  0  0  0  0  0  0  0  0  0  0
    1.3965  -49.6173  -28.8734 N   0  0  0  0  0  0  0  0  0  0  0  0
    3.1495  -48.9736  -27.3847 C   0  0  0  0  0  0  0  0  0  0  0  0
    4.1294  -48.0927  -26.9789 C   0  0  0  0  0  0  0  0  0  0  0  0
    4.9236  -48.3464  -25.8545 O   0  0  0  0  0  0  0  0  0  0  0  0
    5.8829  -47.4082  -25.4083 C   0  0  0  0  0  0  0  0  0  0  0  0
    6.5191  -47.9251  -24.1561 C   0  0  0  0  0  0  0  0  0  0  0  0
    6.5214  -47.1220  -22.9132 C   0  0  0  0  0  0  0  0  0  0  0  0
    5.5618  -48.3005  -23.0242 C   0  0  0  0  0  0  0  0  0  0  0  0
    4.3205  -46.9365  -27.7085 C   0  0  0  0  0  0  0  0  0  0  0  0
    3.5436  -46.6774  -28.8170 C   0  0  0  0  0  0  0  0  0  0  0  0
    3.7248  -45.5327  -29.5494 F   0  0  0  0  0  0  0  0  0  0  0  0
  2  1  1  6
  2  3  1  0
  3  4  1  0
  4  5  1  0
  5  6  1  1
  5  7  1  0
  7  8  1  0
  1  9  1  0
  9 10  1  0
 10 11  1  0
 11 12  1  0
 12 13  2  0
 12 14  1  0
 14 15  2  0
 15 16  1  0
 15 17  1  0
 17 18  2  0
 18 19  1  0
 19 20  1  0
 20 21  1  0
 21 22  1  0
 22 23  1  0
 18 24  1  0
 24 25  2  0
 25 26  1  0
  8  2  1  0
 16 10  2  0
 23 21  1  0
 25 14  1  0
M  END
$$$$
