
     RDKit          3D

 26 29  0  0  0  0  0  0  0  0999 V2000
   -3.6943  -13.8571  -40.4311 S   0  0  0  0  0  0  0  0  0  0  0  0
   -2.3356  -12.7523  -40.1214 C   0  0  2  0  0  0  0  0  0  0  0  0
   -2.7552  -11.4542  -39.4693 C   0  0  0  0  0  0  0  0  0  0  0  0
   -1.6286  -10.4944  -39.2778 C   0  0  0  0  0  0  0  0  0  0  0  0
   -0.6639  -10.4307  -40.4261 C   0  0  1  0  0  0  0  0  0  0  0  0
    0.5035  -11.0993  -40.0227 O   0  0  0  0  0  0  0  0  0  0  0  0
   -1.1814  -11.1647  -41.6458 C   0  0  0  0  0  0  0  0  0  0  0  0
   -1.4726  -12.6082  -41.3197 C   0  0  0  0  0  0  0  0  0  0  0  0
   -3.5911  -15.4784  -39.7186 C   0  0  0  0  0  0  0  0  0  0  0  0
   -3.7624  -15.5354  -38.2498 C   0  0  0  0  0  0  0  0  0  0  0  0
   -4.6955  -16.3254  -37.6920 N   0  0  0  0  0  0  0  0  0  0  0  0
   -4.8997  -16.4516  -36.3782 C   0  0  0  0  0  0  0  0  0  0  0  0
   -5.7761  -17.1940  -35.8655 O   0  0  0  0  0  0  0  0  0  0  0  0
   -4.1089  -15.7290  -35.4997 C   0  0  0  0  0  0  0  0  0  0  0  0
   -3.1445  -14.9114  -36.0518 C   0  0  0  0  0  0  0  0  0  0  0  0
   -2.9909  -14.8301  -37.3852 N   0  0  0  0  0  0  0  0  0  0  0  0
   -2.3650  -14.2000  -35.1683 C   0  0  0  0  0  0  0  0  0  0  0  0
   -2.5157  -14.2793  -33.8001 C   0  0  0  0  0  0  0  0  0  0  0  0
   -1.7050  -13.5421  -32.9292 O   0  0  0  0  0  0  0  0  0  0  0  0
   -1.0604  -12.3575  -33.3544 C   0  0  0  0  0  0  0  0  0  0  0  0
   -0.1778  -11.8642  -32.2508 C   0  0  0  0  0  0  0  0  0  0  0  0
    0.5594  -12.8089  -31.3827 C   0  0  0  0  0  0  0  0  0  0  0  0
    1.3253  -12.0517  -32.4608 C   0  0  0  0  0  0  0  0  0  0  0  0
   -3.4934  -15.1103  -33.2911 C   0  0  0  0  0  0  0  0  0  0  0  0
   -4.2966  -15.8406  -34.1403 C   0  0  0  0  0  0  0  0  0  0  0  0
   -5.2711  -16.6686  -33.6460 F   0  0  0  0  0  0  0  0  0  0  0  0
  2  1  1  6
  2  3  1  0
  3  4  1  0
  4  5  1  0
  5  6  1  1
  5  7  1  0
  7  8  1  0
  1  9  1  0
  9 10  1  0
 10 11  1  0
 11 12  1  0
 12 13  2  0
 12 14  1  0
 14 15  2  0
 15 16  1  0
 15 17  1  0
 17 18  2  0
 18 19  1  0
 19 20  1  0
 20 21  1  0
 21 22  1  0
 22 23  1  0
 18 24  1  0
 24 25  2  0
 25 26  1  0
  8  2  1  0
 16 10  2  0
 23 21  1  0
 25 14  1  0
M  END
$$$$
