# created with PyMOL 3.0.5
@<TRIPOS>MOLECULE
rank6_complex_lddt0.48_affinity5.78_relaxed
59 62 1                 
SMALL
USER_CHARGES
@<TRIPOS>ATOM
1	 H1x	28.296	-26.372	-29.560	 H	1	UNK0	0.000	
2	 C1x	27.728	-25.705	-30.201	C.2	1	UNK0	0.000	
3	 C2x	27.872	-25.774	-31.586	C.2	1	UNK0	0.000	
4	 O1x	28.748	-26.690	-32.113	O.3	1	UNK0	0.000	
5	 C3x	28.331	-27.493	-33.225	C.3	1	UNK0	0.000	
6	 H2x	27.390	-28.003	-32.987	 H	1	UNK0	0.000	
7	 H3x	28.172	-26.861	-34.107	 H	1	UNK0	0.000	
8	 C4x	29.424	-28.543	-33.543	C.3	1	UNK0	0.000	
9	 H4x	30.361	-28.003	-33.726	 H	1	UNK0	0.000	
10	 C5x	29.678	-29.538	-32.367	C.3	1	UNK0	0.000	
11	 H5x	30.759	-29.630	-32.209	 H	1	UNK0	0.000	
12	 H6x	29.267	-29.151	-31.426	 H	1	UNK0	0.000	
13	 C6x	29.107	-30.952	-32.639	C.3	1	UNK0	0.000	
14	 H7x	29.326	-31.596	-31.778	 H	1	UNK0	0.000	
15	 H8x	28.017	-30.897	-32.748	 H	1	UNK0	0.000	
16	 N1x	29.647	-31.544	-33.882	N.pl3	1	UNK0	0.000	
17	 C7x	30.026	-32.878	-33.940	C.2	1	UNK0	0.000	
18	 O2x	30.164	-33.554	-32.931	O.2	1	UNK0	0.000	
19	 C8x	30.217	-33.489	-35.337	C.3	1	UNK0	0.000	
20	 H9x	30.489	-34.549	-35.259	 H	1	UNK0	0.000	
21	H10x	29.288	-33.405	-35.914	 H	1	UNK0	0.000	
22	H11x	31.018	-32.968	-35.877	 H	1	UNK0	0.000	
23	 C9x	29.789	-30.620	-35.035	C.3	1	UNK0	0.000	
24	H12x	30.856	-30.420	-35.188	 H	1	UNK0	0.000	
25	H13x	29.399	-31.100	-35.941	 H	1	UNK0	0.000	
26	C10x	29.044	-29.279	-34.854	C.3	1	UNK0	0.000	
27	H14x	29.246	-28.629	-35.715	 H	1	UNK0	0.000	
28	H15x	27.966	-29.481	-34.864	 H	1	UNK0	0.000	
29	C11x	27.123	-24.919	-32.406	C.2	1	UNK0	0.000	
30	H16x	27.223	-24.954	-33.487	 H	1	UNK0	0.000	
31	C12x	26.231	-23.993	-31.846	C.2	1	UNK0	0.000	
32	 N2x	25.587	-23.172	-32.722	N.2	1	UNK0	0.000	
33	C13x	24.772	-22.257	-32.204	C.2	1	UNK0	0.000	
34	C14x	24.105	-21.261	-33.149	C.3	1	UNK0	0.000	
35	H17x	23.180	-20.885	-32.693	 H	1	UNK0	0.000	
36	H18x	23.824	-21.782	-34.073	 H	1	UNK0	0.000	
37	 S1x	25.158	-19.780	-33.632	S.3	1	UNK0	0.000	
38	C15x	26.821	-20.543	-33.958	C.3	1	UNK0	0.000	
39	H19x	26.714	-21.634	-34.006	 H	1	UNK0	0.000	
40	C16x	27.399	-20.191	-35.337	C.3	1	UNK0	0.000	
41	H20x	26.708	-20.509	-36.127	 H	1	UNK0	0.000	
42	H21x	27.536	-19.107	-35.431	 H	1	UNK0	0.000	
43	C17x	28.754	-20.919	-35.498	C.3	1	UNK0	0.000	
44	H22x	28.611	-22.006	-35.464	 H	1	UNK0	0.000	
45	H23x	29.199	-20.657	-36.466	 H	1	UNK0	0.000	
46	 O3x	29.625	-20.494	-34.428	O.3	1	UNK0	0.000	
47	C18x	29.181	-20.866	-33.103	C.3	1	UNK0	0.000	
48	H24x	29.081	-21.956	-33.031	 H	1	UNK0	0.000	
49	H25x	29.913	-20.534	-32.356	 H	1	UNK0	0.000	
50	C19x	27.817	-20.193	-32.831	C.3	1	UNK0	0.000	
51	H26x	27.425	-20.536	-31.865	 H	1	UNK0	0.000	
52	H27x	27.945	-19.106	-32.764	 H	1	UNK0	0.000	
53	 N3x	24.572	-22.099	-30.850	N.2	1	UNK0	0.000	
54	H28x	23.895	-21.438	-30.490	 H	1	UNK0	0.000	
55	C20x	25.193	-22.848	-29.903	C.2	1	UNK0	0.000	
56	 O4x	25.086	-22.554	-28.726	O.2	1	UNK0	0.000	
57	C21x	26.086	-23.911	-30.449	C.2	1	UNK0	0.000	
58	C22x	26.841	-24.779	-29.636	C.2	1	UNK0	0.000	
59	 F1x	26.829	-24.673	-28.297	 F	1	UNK0	0.000	
@<TRIPOS>BOND
1 1 2 1
2 2 3 ar
3 2 58 ar
4 3 4 1
5 3 29 ar
6 4 5 1
7 5 6 1
8 5 7 1
9 5 8 1
10 8 9 1
11 8 10 1
12 8 26 1
13 10 11 1
14 10 12 1
15 10 13 1
16 13 14 1
17 13 15 1
18 13 16 1
19 16 17 1
20 16 23 1
21 17 18 2
22 17 19 1
23 19 20 1
24 19 21 1
25 19 22 1
26 23 24 1
27 23 25 1
28 23 26 1
29 26 27 1
30 26 28 1
31 29 30 1
32 29 31 ar
33 31 32 ar
34 31 57 ar
35 32 33 ar
36 33 34 1
37 33 53 ar
38 34 35 1
39 34 36 1
40 34 37 1
41 37 38 1
42 38 39 1
43 38 40 1
44 38 50 1
45 40 41 1
46 40 42 1
47 40 43 1
48 43 44 1
49 43 45 1
50 43 46 1
51 46 47 1
52 47 48 1
53 47 49 1
54 47 50 1
55 50 51 1
56 50 52 1
57 53 54 1
58 53 55 ar
59 55 56 2
60 55 57 ar
61 57 58 ar
62 58 59 1
@<TRIPOS>SUBSTRUCTURE
1	UNK0	1	GROUP	1 X	UNK
