# created with PyMOL 3.0.5
@<TRIPOS>MOLECULE
rank10_complex_lddt0.43_affinity5.83_relaxed
59 62 1                 
SMALL
USER_CHARGES
@<TRIPOS>ATOM
1	 H1x	24.509	-23.804	-27.989	 H	1	UNK0	0.000	
2	 C1x	24.737	-24.080	-29.015	C.2	1	UNK0	0.000	
3	 C2x	23.828	-23.799	-30.028	C.2	1	UNK0	0.000	
4	 O1x	22.706	-23.123	-29.676	O.3	1	UNK0	0.000	
5	 C3x	21.526	-23.121	-30.477	C.3	1	UNK0	0.000	
6	 H2x	21.535	-22.285	-31.188	 H	1	UNK0	0.000	
7	 H3x	21.424	-24.064	-31.028	 H	1	UNK0	0.000	
8	 C4x	20.374	-23.008	-29.492	C.3	1	UNK0	0.000	
9	 H4x	19.474	-23.160	-30.101	 H	1	UNK0	0.000	
10	 C5x	20.469	-24.166	-28.442	C.3	1	UNK0	0.000	
11	 H5x	19.688	-24.924	-28.577	 H	1	UNK0	0.000	
12	 H6x	21.400	-24.734	-28.556	 H	1	UNK0	0.000	
13	 C6x	20.408	-23.659	-27.014	C.3	1	UNK0	0.000	
14	 H7x	20.347	-24.506	-26.319	 H	1	UNK0	0.000	
15	 H8x	21.329	-23.110	-26.782	 H	1	UNK0	0.000	
16	 N1x	19.290	-22.756	-26.857	N.pl3	1	UNK0	0.000	
17	 C7x	18.227	-23.160	-26.083	C.2	1	UNK0	0.000	
18	 O2x	18.078	-24.310	-25.739	O.2	1	UNK0	0.000	
19	 C8x	17.311	-22.075	-25.663	C.3	1	UNK0	0.000	
20	 H9x	16.529	-22.475	-25.005	 H	1	UNK0	0.000	
21	H10x	17.977	-21.364	-25.159	 H	1	UNK0	0.000	
22	H11x	16.843	-21.567	-26.515	 H	1	UNK0	0.000	
23	 C9x	19.279	-21.535	-27.680	C.3	1	UNK0	0.000	
24	H12x	18.274	-21.383	-28.091	 H	1	UNK0	0.000	
25	H13x	19.518	-20.678	-27.038	 H	1	UNK0	0.000	
26	C10x	20.301	-21.589	-28.840	C.3	1	UNK0	0.000	
27	H14x	20.049	-20.834	-29.594	 H	1	UNK0	0.000	
28	H15x	21.286	-21.314	-28.444	 H	1	UNK0	0.000	
29	C11x	24.108	-24.134	-31.361	C.2	1	UNK0	0.000	
30	H16x	23.388	-23.954	-32.153	 H	1	UNK0	0.000	
31	C12x	25.299	-24.793	-31.679	C.2	1	UNK0	0.000	
32	 N2x	25.497	-25.142	-32.992	N.2	1	UNK0	0.000	
33	C13x	26.581	-25.858	-33.239	C.2	1	UNK0	0.000	
34	C14x	26.771	-26.465	-34.615	C.3	1	UNK0	0.000	
35	H17x	26.589	-25.705	-35.385	 H	1	UNK0	0.000	
36	H18x	26.008	-27.241	-34.753	 H	1	UNK0	0.000	
37	 S1x	28.437	-27.297	-34.835	S.3	1	UNK0	0.000	
38	C15x	29.414	-26.254	-36.023	C.3	1	UNK0	0.000	
39	H19x	29.792	-26.960	-36.772	 H	1	UNK0	0.000	
40	C16x	28.624	-25.170	-36.790	C.3	1	UNK0	0.000	
41	H20x	27.794	-25.625	-37.345	 H	1	UNK0	0.000	
42	H21x	28.206	-24.434	-36.093	 H	1	UNK0	0.000	
43	C17x	29.567	-24.447	-37.776	C.3	1	UNK0	0.000	
44	H22x	29.930	-25.149	-38.536	 H	1	UNK0	0.000	
45	H23x	29.024	-23.638	-38.279	 H	1	UNK0	0.000	
46	 O3x	30.676	-23.905	-37.029	O.3	1	UNK0	0.000	
47	C18x	31.507	-24.882	-36.367	C.3	1	UNK0	0.000	
48	H24x	31.918	-25.586	-37.100	 H	1	UNK0	0.000	
49	H25x	32.341	-24.381	-35.860	 H	1	UNK0	0.000	
50	C19x	30.647	-25.639	-35.329	C.3	1	UNK0	0.000	
51	H26x	31.248	-26.428	-34.861	 H	1	UNK0	0.000	
52	H27x	30.330	-24.953	-34.533	 H	1	UNK0	0.000	
53	 N3x	27.586	-26.059	-32.322	N.2	1	UNK0	0.000	
54	H28x	28.422	-26.562	-32.594	 H	1	UNK0	0.000	
55	C20x	27.529	-25.644	-31.041	C.2	1	UNK0	0.000	
56	 O4x	28.509	-25.725	-30.324	O.2	1	UNK0	0.000	
57	C21x	26.232	-25.051	-30.655	C.2	1	UNK0	0.000	
58	C22x	25.949	-24.689	-29.330	C.2	1	UNK0	0.000	
59	 F1x	26.871	-24.845	-28.358	 F	1	UNK0	0.000	
@<TRIPOS>BOND
1 1 2 1
2 2 3 ar
3 2 58 ar
4 3 4 1
5 3 29 ar
6 4 5 1
7 5 6 1
8 5 7 1
9 5 8 1
10 8 9 1
11 8 10 1
12 8 26 1
13 10 11 1
14 10 12 1
15 10 13 1
16 13 14 1
17 13 15 1
18 13 16 1
19 16 17 1
20 16 23 1
21 17 18 2
22 17 19 1
23 19 20 1
24 19 21 1
25 19 22 1
26 23 24 1
27 23 25 1
28 23 26 1
29 26 27 1
30 26 28 1
31 29 30 1
32 29 31 ar
33 31 32 ar
34 31 57 ar
35 32 33 ar
36 33 34 1
37 33 53 ar
38 34 35 1
39 34 36 1
40 34 37 1
41 37 38 1
42 38 39 1
43 38 40 1
44 38 50 1
45 40 41 1
46 40 42 1
47 40 43 1
48 43 44 1
49 43 45 1
50 43 46 1
51 46 47 1
52 47 48 1
53 47 49 1
54 47 50 1
55 50 51 1
56 50 52 1
57 53 54 1
58 53 55 ar
59 55 56 2
60 55 57 ar
61 57 58 ar
62 58 59 1
@<TRIPOS>SUBSTRUCTURE
1	UNK0	1	GROUP	1 X	UNK
