# created with PyMOL 3.0.5
@<TRIPOS>MOLECULE
rank8_complex_lddt0.56_affinity6.52_relaxed
59 62 1                 
SMALL
USER_CHARGES
@<TRIPOS>ATOM
1	 H1x	20.322	6.453	-91.309	 H	1	UNK0	0.000	
2	 C1x	21.169	5.889	-90.930	C.2	1	UNK0	0.000	
3	 C2x	22.197	6.519	-90.209	C.2	1	UNK0	0.000	
4	 O1x	22.223	7.875	-90.001	O.3	1	UNK0	0.000	
5	 C3x	21.599	8.808	-90.899	C.3	1	UNK0	0.000	
6	 H2x	21.748	8.476	-91.934	 H	1	UNK0	0.000	
7	 H3x	20.521	8.872	-90.702	 H	1	UNK0	0.000	
8	 C4x	22.280	10.191	-90.711	C.3	1	UNK0	0.000	
9	 H4x	23.358	10.028	-90.836	 H	1	UNK0	0.000	
10	 C5x	21.874	11.200	-91.805	C.3	1	UNK0	0.000	
11	 H5x	22.719	11.871	-92.002	 H	1	UNK0	0.000	
12	 H6x	21.669	10.680	-92.749	 H	1	UNK0	0.000	
13	 C6x	20.655	12.059	-91.411	C.3	1	UNK0	0.000	
14	 H7x	20.453	12.743	-92.245	 H	1	UNK0	0.000	
15	 H8x	19.779	11.411	-91.285	 H	1	UNK0	0.000	
16	 N1x	20.860	12.822	-90.158	N.pl3	1	UNK0	0.000	
17	 C7x	20.258	14.050	-89.896	C.2	1	UNK0	0.000	
18	 O2x	20.387	14.603	-88.818	O.2	1	UNK0	0.000	
19	 C8x	19.444	14.703	-91.024	C.3	1	UNK0	0.000	
20	 H9x	18.980	15.631	-90.667	 H	1	UNK0	0.000	
21	H10x	20.094	14.945	-91.873	 H	1	UNK0	0.000	
22	H11x	18.647	14.029	-91.363	 H	1	UNK0	0.000	
23	 C9x	21.814	12.268	-89.179	C.3	1	UNK0	0.000	
24	H12x	22.774	12.778	-89.330	 H	1	UNK0	0.000	
25	H13x	21.466	12.482	-88.160	 H	1	UNK0	0.000	
26	C10x	22.053	10.751	-89.288	C.3	1	UNK0	0.000	
27	H14x	22.984	10.563	-88.740	 H	1	UNK0	0.000	
28	H15x	21.233	10.222	-88.787	 H	1	UNK0	0.000	
29	C11x	23.278	5.770	-89.736	C.2	1	UNK0	0.000	
30	H16x	24.079	6.271	-89.200	 H	1	UNK0	0.000	
31	C12x	23.375	4.400	-89.997	C.2	1	UNK0	0.000	
32	 N2x	24.528	3.777	-89.599	N.2	1	UNK0	0.000	
33	C13x	24.651	2.486	-89.890	C.2	1	UNK0	0.000	
34	C14x	26.014	1.825	-89.657	C.3	1	UNK0	0.000	
35	H17x	26.177	1.504	-88.621	 H	1	UNK0	0.000	
36	H18x	26.803	2.569	-89.818	 H	1	UNK0	0.000	
37	 S1x	26.359	0.379	-90.730	S.3	1	UNK0	0.000	
38	C15x	26.637	1.197	-92.359	C.3	1	UNK0	0.000	
39	H19x	25.665	1.205	-92.866	 H	1	UNK0	0.000	
40	C16x	27.052	2.677	-92.356	C.3	1	UNK0	0.000	
41	H20x	26.286	3.304	-91.883	 H	1	UNK0	0.000	
42	H21x	27.995	2.819	-91.814	 H	1	UNK0	0.000	
43	C17x	27.201	3.144	-93.818	C.3	1	UNK0	0.000	
44	H22x	26.241	3.060	-94.343	 H	1	UNK0	0.000	
45	H23x	27.516	4.194	-93.837	 H	1	UNK0	0.000	
46	 O3x	28.196	2.324	-94.461	O.3	1	UNK0	0.000	
47	C18x	27.869	0.929	-94.570	C.3	1	UNK0	0.000	
48	H24x	26.975	0.805	-95.194	 H	1	UNK0	0.000	
49	H25x	28.688	0.395	-95.067	 H	1	UNK0	0.000	
50	C19x	27.662	0.372	-93.149	C.3	1	UNK0	0.000	
51	H26x	27.348	-0.678	-93.190	 H	1	UNK0	0.000	
52	H27x	28.618	0.395	-92.612	 H	1	UNK0	0.000	
53	 N3x	23.653	1.760	-90.504	N.2	1	UNK0	0.000	
54	H28x	23.778	0.769	-90.670	 H	1	UNK0	0.000	
55	C20x	22.479	2.302	-90.929	C.2	1	UNK0	0.000	
56	 O4x	21.640	1.625	-91.473	O.2	1	UNK0	0.000	
57	C21x	22.339	3.757	-90.698	C.2	1	UNK0	0.000	
58	C22x	21.236	4.509	-91.167	C.2	1	UNK0	0.000	
59	 F1x	20.239	3.942	-91.878	 F	1	UNK0	0.000	
@<TRIPOS>BOND
1 1 2 1
2 2 3 ar
3 2 58 ar
4 3 4 1
5 3 29 ar
6 4 5 1
7 5 6 1
8 5 7 1
9 5 8 1
10 8 9 1
11 8 10 1
12 8 26 1
13 10 11 1
14 10 12 1
15 10 13 1
16 13 14 1
17 13 15 1
18 13 16 1
19 16 17 1
20 16 23 1
21 17 18 2
22 17 19 1
23 19 20 1
24 19 21 1
25 19 22 1
26 23 24 1
27 23 25 1
28 23 26 1
29 26 27 1
30 26 28 1
31 29 30 1
32 29 31 ar
33 31 32 ar
34 31 57 ar
35 32 33 ar
36 33 34 1
37 33 53 ar
38 34 35 1
39 34 36 1
40 34 37 1
41 37 38 1
42 38 39 1
43 38 40 1
44 38 50 1
45 40 41 1
46 40 42 1
47 40 43 1
48 43 44 1
49 43 45 1
50 43 46 1
51 46 47 1
52 47 48 1
53 47 49 1
54 47 50 1
55 50 51 1
56 50 52 1
57 53 54 1
58 53 55 ar
59 55 56 2
60 55 57 ar
61 57 58 ar
62 58 59 1
@<TRIPOS>SUBSTRUCTURE
1	UNK0	1	GROUP	1 X	UNK
