# created with PyMOL 3.0.5
@<TRIPOS>MOLECULE
rank5_complex_lddt0.49_affinity5.92_relaxed
59 62 1                 
SMALL
USER_CHARGES
@<TRIPOS>ATOM
1	 H1x	24.719	-26.170	-36.849	 H	1	UNK0	0.000	
2	 C1x	24.664	-25.761	-35.845	C.2	1	UNK0	0.000	
3	 C2x	25.708	-25.977	-34.942	C.2	1	UNK0	0.000	
4	 O1x	26.782	-26.751	-35.316	O.3	1	UNK0	0.000	
5	 C3x	27.075	-27.904	-34.505	C.3	1	UNK0	0.000	
6	 H2x	26.884	-27.668	-33.451	 H	1	UNK0	0.000	
7	 H3x	26.415	-28.739	-34.773	 H	1	UNK0	0.000	
8	 C4x	28.571	-28.293	-34.670	C.3	1	UNK0	0.000	
9	 H4x	29.125	-27.386	-34.942	 H	1	UNK0	0.000	
10	 C5x	29.171	-28.780	-33.321	C.3	1	UNK0	0.000	
11	 H5x	30.204	-28.418	-33.247	 H	1	UNK0	0.000	
12	 H6x	28.645	-28.341	-32.464	 H	1	UNK0	0.000	
13	 C6x	29.193	-30.318	-33.194	C.3	1	UNK0	0.000	
14	 H7x	29.627	-30.563	-32.217	 H	1	UNK0	0.000	
15	 H8x	28.171	-30.716	-33.234	 H	1	UNK0	0.000	
16	 N1x	29.995	-30.948	-34.262	N.pl3	1	UNK0	0.000	
17	 C7x	30.732	-32.097	-33.993	C.2	1	UNK0	0.000	
18	 O2x	30.560	-32.754	-32.980	O.2	1	UNK0	0.000	
19	 C8x	31.833	-32.471	-34.995	C.3	1	UNK0	0.000	
20	 H9x	32.462	-33.271	-34.587	 H	1	UNK0	0.000	
21	H10x	31.389	-32.822	-35.935	 H	1	UNK0	0.000	
22	H11x	32.471	-31.603	-35.206	 H	1	UNK0	0.000	
23	 C9x	30.019	-30.248	-35.572	C.3	1	UNK0	0.000	
24	H12x	30.929	-29.639	-35.627	 H	1	UNK0	0.000	
25	H13x	30.056	-30.990	-36.379	 H	1	UNK0	0.000	
26	C10x	28.781	-29.339	-35.805	C.3	1	UNK0	0.000	
27	H14x	28.875	-28.825	-36.769	 H	1	UNK0	0.000	
28	H15x	27.899	-29.986	-35.883	 H	1	UNK0	0.000	
29	C11x	25.639	-25.425	-33.653	C.2	1	UNK0	0.000	
30	H16x	26.451	-25.558	-32.944	 H	1	UNK0	0.000	
31	C12x	24.501	-24.723	-33.236	C.2	1	UNK0	0.000	
32	 N2x	24.520	-24.222	-31.965	N.2	1	UNK0	0.000	
33	C13x	23.335	-23.810	-31.502	C.2	1	UNK0	0.000	
34	C14x	23.137	-23.496	-30.034	C.3	1	UNK0	0.000	
35	H17x	22.420	-24.199	-29.594	 H	1	UNK0	0.000	
36	H18x	22.700	-22.491	-29.991	 H	1	UNK0	0.000	
37	 S1x	24.687	-23.530	-29.024	S.3	1	UNK0	0.000	
38	C15x	24.386	-22.259	-27.735	C.3	1	UNK0	0.000	
39	H19x	24.776	-22.696	-26.807	 H	1	UNK0	0.000	
40	C16x	25.233	-21.038	-28.079	C.3	1	UNK0	0.000	
41	H20x	26.247	-21.337	-28.370	 H	1	UNK0	0.000	
42	H21x	24.804	-20.489	-28.926	 H	1	UNK0	0.000	
43	C17x	25.264	-20.167	-26.838	C.3	1	UNK0	0.000	
44	H22x	25.703	-20.760	-26.026	 H	1	UNK0	0.000	
45	H23x	25.895	-19.287	-27.013	 H	1	UNK0	0.000	
46	 O3x	23.913	-19.751	-26.504	O.3	1	UNK0	0.000	
47	C18x	22.927	-20.811	-26.278	C.3	1	UNK0	0.000	
48	H24x	23.161	-21.358	-25.356	 H	1	UNK0	0.000	
49	H25x	21.928	-20.372	-26.162	 H	1	UNK0	0.000	
50	C19x	22.931	-21.790	-27.475	C.3	1	UNK0	0.000	
51	H26x	22.272	-22.640	-27.260	 H	1	UNK0	0.000	
52	H27x	22.519	-21.260	-28.343	 H	1	UNK0	0.000	
53	 N3x	22.242	-23.575	-32.306	N.2	1	UNK0	0.000	
54	H28x	21.347	-23.299	-31.920	 H	1	UNK0	0.000	
55	C20x	22.211	-23.859	-33.622	C.2	1	UNK0	0.000	
56	 O4x	21.283	-23.483	-34.316	O.2	1	UNK0	0.000	
57	C21x	23.415	-24.571	-34.119	C.2	1	UNK0	0.000	
58	C22x	23.520	-25.061	-35.435	C.2	1	UNK0	0.000	
59	 F1x	22.540	-24.862	-36.343	 F	1	UNK0	0.000	
@<TRIPOS>BOND
1 1 2 1
2 2 3 ar
3 2 58 ar
4 3 4 1
5 3 29 ar
6 4 5 1
7 5 6 1
8 5 7 1
9 5 8 1
10 8 9 1
11 8 10 1
12 8 26 1
13 10 11 1
14 10 12 1
15 10 13 1
16 13 14 1
17 13 15 1
18 13 16 1
19 16 17 1
20 16 23 1
21 17 18 2
22 17 19 1
23 19 20 1
24 19 21 1
25 19 22 1
26 23 24 1
27 23 25 1
28 23 26 1
29 26 27 1
30 26 28 1
31 29 30 1
32 29 31 ar
33 31 32 ar
34 31 57 ar
35 32 33 ar
36 33 34 1
37 33 53 ar
38 34 35 1
39 34 36 1
40 34 37 1
41 37 38 1
42 38 39 1
43 38 40 1
44 38 50 1
45 40 41 1
46 40 42 1
47 40 43 1
48 43 44 1
49 43 45 1
50 43 46 1
51 46 47 1
52 47 48 1
53 47 49 1
54 47 50 1
55 50 51 1
56 50 52 1
57 53 54 1
58 53 55 ar
59 55 56 2
60 55 57 ar
61 57 58 ar
62 58 59 1
@<TRIPOS>SUBSTRUCTURE
1	UNK0	1	GROUP	1 X	UNK
