# created with PyMOL 3.0.5
@<TRIPOS>MOLECULE
rank3_confidence-0.81
26 29 1                 
SMALL
USER_CHARGES
@<TRIPOS>ATOM
1	   S	2.125	-44.688	-30.267	S.3	1	UNK0	0.000	
2	   C	2.469	-42.963	-30.003	C.3	1	UNK0	0.000	
3	   C	3.614	-42.444	-30.844	C.3	1	UNK0	0.000	
4	   C	3.953	-41.017	-30.569	C.3	1	UNK0	0.000	
5	   C	3.910	-40.636	-29.118	C.3	1	UNK0	0.000	
6	   O	2.748	-39.870	-28.926	O.3	1	UNK0	0.000	
7	   C	3.783	-41.845	-28.215	C.3	1	UNK0	0.000	
8	   C	2.550	-42.643	-28.557	C.3	1	UNK0	0.000	
9	   C	1.453	-45.592	-28.897	C.3	1	UNK0	0.000	
10	   C	2.019	-46.944	-28.693	C.2	1	UNK0	0.000	
11	   N	3.262	-47.108	-28.209	N.pl3	1	UNK0	0.000	
12	   C	3.839	-48.290	-27.975	C.2	1	UNK0	0.000	
13	   O	5.003	-48.433	-27.522	O.2	1	UNK0	0.000	
14	   C	3.130	-49.451	-28.239	C.2	1	UNK0	0.000	
15	   C	1.852	-49.305	-28.737	C.2	1	UNK0	0.000	
16	   N	1.330	-48.084	-28.950	N.2	1	UNK0	0.000	
17	   C	1.158	-50.465	-28.994	C.2	1	UNK0	0.000	
18	   C	1.686	-51.721	-28.777	C.2	1	UNK0	0.000	
19	   O	0.952	-52.881	-29.049	O.3	1	UNK0	0.000	
20	   C	-0.352	-52.814	-29.591	C.3	1	UNK0	0.000	
21	   C	-1.262	-53.672	-28.769	C.3	1	UNK0	0.000	
22	   C	-2.090	-54.726	-29.396	C.3	1	UNK0	0.000	
23	   C	-0.846	-55.136	-28.618	C.3	1	UNK0	0.000	
24	   C	2.969	-51.819	-28.278	C.2	1	UNK0	0.000	
25	   C	3.699	-50.682	-28.006	C.2	1	UNK0	0.000	
26	   F	4.974	-50.769	-27.511	 F	1	UNK0	0.000	
@<TRIPOS>BOND
1 1 9 1
2 1 2 1
3 2 3 1
4 3 4 1
5 4 5 1
6 5 6 1
7 5 7 1
8 7 8 1
9 2 8 1
10 9 10 1
11 10 11 1
12 11 12 1
13 12 13 2
14 12 14 1
15 14 15 2
16 15 16 1
17 15 17 1
18 10 16 2
19 17 18 2
20 18 19 1
21 18 24 1
22 19 20 1
23 20 21 1
24 21 22 1
25 22 23 1
26 21 23 1
27 24 25 2
28 14 25 1
29 25 26 1
@<TRIPOS>SUBSTRUCTURE
1	UNK0	1	GROUP	1 ****	UNK
