# created with PyMOL 3.0.5
@<TRIPOS>MOLECULE
rank1_confidence-0.43
26 29 1                 
SMALL
USER_CHARGES
@<TRIPOS>ATOM
1	   S	26.036	-31.219	-41.648	S.3	1	UNK0	0.000	
2	   C	25.796	-32.817	-42.391	C.3	1	UNK0	0.000	
3	   C	25.122	-32.754	-43.743	C.3	1	UNK0	0.000	
4	   C	24.851	-34.097	-44.335	C.3	1	UNK0	0.000	
5	   C	24.371	-35.124	-43.351	C.3	1	UNK0	0.000	
6	   O	25.441	-36.003	-43.115	O.3	1	UNK0	0.000	
7	   C	24.015	-34.509	-42.013	C.3	1	UNK0	0.000	
8	   C	25.197	-33.775	-41.430	C.3	1	UNK0	0.000	
9	   C	26.838	-31.180	-40.067	C.3	1	UNK0	0.000	
10	   C	26.644	-29.935	-39.290	C.2	1	UNK0	0.000	
11	   N	25.788	-28.986	-39.706	N.pl3	1	UNK0	0.000	
12	   C	25.538	-27.847	-39.054	C.2	1	UNK0	0.000	
13	   O	24.736	-26.965	-39.452	O.2	1	UNK0	0.000	
14	   C	26.192	-27.596	-37.859	C.2	1	UNK0	0.000	
15	   C	27.075	-28.558	-37.413	C.2	1	UNK0	0.000	
16	   N	27.281	-29.684	-38.119	N.2	1	UNK0	0.000	
17	   C	27.717	-28.297	-36.224	C.2	1	UNK0	0.000	
18	   C	27.510	-27.146	-35.495	C.2	1	UNK0	0.000	
19	   O	28.180	-26.912	-34.288	O.3	1	UNK0	0.000	
20	   C	29.019	-27.894	-33.714	C.3	1	UNK0	0.000	
21	   C	29.387	-27.465	-32.328	C.3	1	UNK0	0.000	
22	   C	30.796	-27.469	-31.877	C.3	1	UNK0	0.000	
23	   C	30.137	-26.137	-32.215	C.3	1	UNK0	0.000	
24	   C	26.618	-26.210	-35.978	C.2	1	UNK0	0.000	
25	   C	25.953	-26.431	-37.165	C.2	1	UNK0	0.000	
26	   F	25.065	-25.509	-37.655	 F	1	UNK0	0.000	
@<TRIPOS>BOND
1 1 9 1
2 1 2 1
3 2 3 1
4 3 4 1
5 4 5 1
6 5 6 1
7 5 7 1
8 7 8 1
9 2 8 1
10 9 10 1
11 10 11 1
12 11 12 1
13 12 13 2
14 12 14 1
15 14 15 2
16 15 16 1
17 15 17 1
18 10 16 2
19 17 18 2
20 18 19 1
21 18 24 1
22 19 20 1
23 20 21 1
24 21 22 1
25 22 23 1
26 21 23 1
27 24 25 2
28 14 25 1
29 25 26 1
@<TRIPOS>SUBSTRUCTURE
1	UNK0	1	GROUP	1 ****	UNK
