# created with PyMOL 3.0.5
@<TRIPOS>MOLECULE
rank2_confidence-0.75
31 34 1                 
SMALL
USER_CHARGES
@<TRIPOS>ATOM
1	   S	31.182	-28.031	-32.518	S.3	1	UNK0	0.000	
2	   C	31.577	-26.876	-31.240	C.3	1	UNK0	0.000	
3	   C	31.360	-27.453	-29.855	C.3	1	UNK0	0.000	
4	   C	31.869	-26.496	-28.792	C.3	1	UNK0	0.000	
5	   O	33.038	-25.859	-29.118	O.3	1	UNK0	0.000	
6	   C	33.001	-25.165	-30.319	C.3	1	UNK0	0.000	
7	   C	32.927	-26.270	-31.404	C.3	1	UNK0	0.000	
8	   C	29.519	-28.593	-32.522	C.3	1	UNK0	0.000	
9	   C	28.684	-28.273	-33.702	C.2	1	UNK0	0.000	
10	   N	28.529	-29.192	-34.681	N.2	1	UNK0	0.000	
11	   C	27.820	-28.979	-35.813	C.2	1	UNK0	0.000	
12	   C	27.708	-29.962	-36.766	C.2	1	UNK0	0.000	
13	   C	26.963	-29.715	-37.942	C.2	1	UNK0	0.000	
14	   O	26.888	-30.723	-38.842	O.3	1	UNK0	0.000	
15	   C	26.210	-30.801	-40.008	C.3	1	UNK0	0.000	
16	   C	25.651	-32.117	-40.442	C.3	1	UNK0	0.000	
17	   C	24.758	-31.993	-41.659	C.3	1	UNK0	0.000	
18	   C	25.558	-32.279	-42.922	C.3	1	UNK0	0.000	
19	   N	26.006	-33.649	-42.902	N.pl3	1	UNK0	0.000	
20	   C	26.395	-34.171	-41.587	C.3	1	UNK0	0.000	
21	   C	26.874	-32.983	-40.802	C.3	1	UNK0	0.000	
22	   C	26.073	-34.457	-44.061	C.2	1	UNK0	0.000	
23	   O	25.478	-34.096	-45.105	O.2	1	UNK0	0.000	
24	   C	26.829	-35.726	-44.083	C.3	1	UNK0	0.000	
25	   C	26.374	-28.482	-38.081	C.2	1	UNK0	0.000	
26	   C	26.480	-27.475	-37.123	C.2	1	UNK0	0.000	
27	   F	25.893	-26.261	-37.273	 F	1	UNK0	0.000	
28	   C	27.206	-27.748	-36.004	C.2	1	UNK0	0.000	
29	   C	27.361	-26.810	-35.009	C.2	1	UNK0	0.000	
30	   O	26.828	-25.653	-35.106	O.2	1	UNK0	0.000	
31	   N	28.080	-27.096	-33.914	N.pl3	1	UNK0	0.000	
@<TRIPOS>BOND
1 1 2 1
2 1 8 1
3 2 3 1
4 3 4 1
5 4 5 1
6 5 6 1
7 6 7 1
8 2 7 1
9 8 9 1
10 9 10 2
11 10 11 1
12 11 12 2
13 12 13 1
14 13 14 1
15 13 25 2
16 14 15 1
17 15 16 1
18 16 17 1
19 17 18 1
20 18 19 1
21 19 20 1
22 19 22 1
23 20 21 1
24 16 21 1
25 22 23 2
26 22 24 1
27 25 26 1
28 26 27 1
29 26 28 2
30 11 28 1
31 28 29 1
32 29 30 2
33 29 31 1
34 9 31 1
@<TRIPOS>SUBSTRUCTURE
1	UNK0	1	GROUP	1 ****	UNK
