# created with PyMOL 3.0.5
@<TRIPOS>MOLECULE
rank3_confidence-0.77
31 34 1                 
SMALL
USER_CHARGES
@<TRIPOS>ATOM
1	   S	29.609	-29.522	-35.028	S.3	1	UNK0	0.000	
2	   C	30.375	-31.049	-35.481	C.3	1	UNK0	0.000	
3	   C	30.841	-31.840	-34.275	C.3	1	UNK0	0.000	
4	   C	31.335	-33.213	-34.694	C.3	1	UNK0	0.000	
5	   O	30.592	-33.803	-35.684	O.3	1	UNK0	0.000	
6	   C	30.455	-33.041	-36.834	C.3	1	UNK0	0.000	
7	   C	29.543	-31.860	-36.412	C.3	1	UNK0	0.000	
8	   C	28.965	-28.588	-36.367	C.3	1	UNK0	0.000	
9	   C	27.845	-27.660	-36.088	C.2	1	UNK0	0.000	
10	   N	27.642	-27.218	-34.827	N.2	1	UNK0	0.000	
11	   C	26.625	-26.402	-34.466	C.2	1	UNK0	0.000	
12	   C	26.482	-25.994	-33.162	C.2	1	UNK0	0.000	
13	   C	25.409	-25.143	-32.810	C.2	1	UNK0	0.000	
14	   O	25.323	-24.774	-31.510	O.3	1	UNK0	0.000	
15	   C	24.454	-23.940	-30.897	C.3	1	UNK0	0.000	
16	   C	24.943	-22.624	-30.384	C.3	1	UNK0	0.000	
17	   C	23.890	-21.540	-30.479	C.3	1	UNK0	0.000	
18	   C	23.149	-21.420	-29.154	C.3	1	UNK0	0.000	
19	   N	24.069	-20.986	-28.132	N.pl3	1	UNK0	0.000	
20	   C	25.428	-21.530	-28.228	C.3	1	UNK0	0.000	
21	   C	25.286	-22.865	-28.901	C.3	1	UNK0	0.000	
22	   C	23.707	-20.094	-27.094	C.2	1	UNK0	0.000	
23	   O	22.669	-19.399	-27.208	O.2	1	UNK0	0.000	
24	   C	24.521	-19.952	-25.870	C.3	1	UNK0	0.000	
25	   C	24.544	-24.754	-33.804	C.2	1	UNK0	0.000	
26	   C	24.678	-25.161	-35.131	C.2	1	UNK0	0.000	
27	   F	23.816	-24.770	-36.103	 F	1	UNK0	0.000	
28	   C	25.721	-25.981	-35.433	C.2	1	UNK0	0.000	
29	   C	25.925	-26.430	-36.718	C.2	1	UNK0	0.000	
30	   O	25.140	-26.090	-37.667	O.2	1	UNK0	0.000	
31	   N	26.958	-27.238	-36.998	N.pl3	1	UNK0	0.000	
@<TRIPOS>BOND
1 1 2 1
2 1 8 1
3 2 3 1
4 3 4 1
5 4 5 1
6 5 6 1
7 6 7 1
8 2 7 1
9 8 9 1
10 9 10 2
11 10 11 1
12 11 12 2
13 12 13 1
14 13 14 1
15 13 25 2
16 14 15 1
17 15 16 1
18 16 17 1
19 17 18 1
20 18 19 1
21 19 20 1
22 19 22 1
23 20 21 1
24 16 21 1
25 22 23 2
26 22 24 1
27 25 26 1
28 26 27 1
29 26 28 2
30 11 28 1
31 28 29 1
32 29 30 2
33 29 31 1
34 9 31 1
@<TRIPOS>SUBSTRUCTURE
1	UNK0	1	GROUP	1 ****	UNK
